@<TRIPOS>MOLECULE
Displayed atoms
172   178    2
SMALL
USER_CHARGES


@<TRIPOS>ATOM
      1 C11         8.4146   15.1045   80.0977 C.3       1 BCD         0.0423 
      2 C21         9.6850   14.8468   80.9308 C.3       1 BCD         0.1782 
      3 O21        10.8672   15.0127   80.1551 O.3       1 BCD        -0.6230 
      4 C31         9.6293   13.4544   81.6114 C.3       1 BCD         0.1415 
      5 O31        10.7365   13.2780   82.4984 O.3       1 BCD        -0.6558 
      6 C41         8.2915   13.2373   82.3499 C.3       1 BCD         0.1313 
      7 O41         8.2167   11.8433   82.6858 O.3       1 BCD        -0.3425 
      8 C51         7.0870   13.6464   81.4608 C.3       1 BCD         0.1520 
      9 O51         7.2675   14.9601   80.8952 O.3       1 BCD        -0.3634 
     10 C61         5.7291   13.6061   82.2025 C.3       1 BCD         0.1175 
     11 O61         5.6915   14.4568   83.3449 O.3       1 BCD        -0.6534 
     12 C12         7.8486   11.5021   83.9951 C.3       1 BCD         0.0423 
     13 C22         8.9976   10.7007   84.6394 C.3       1 BCD         0.1782 
     14 O22        10.2069   11.4522   84.6701 O.3       1 BCD        -0.6230 
     15 C32         9.1817    9.3312   83.9346 C.3       1 BCD         0.1415 
     16 O32        10.1845    8.5504   84.5864 O.3       1 BCD        -0.6558 
     17 C42         7.8352    8.5757   83.8262 C.3       1 BCD         0.1313 
     18 O42         7.9908    7.4312   82.9719 O.3       1 BCD        -0.3425 
     19 C52         6.7428    9.5119   83.2471 C.3       1 BCD         0.1520 
     20 O52         6.6645   10.7462   83.9879 O.3       1 BCD        -0.3634 
     21 C62         5.3339    8.8737   83.2264 C.3       1 BCD         0.1175 
     22 O62         4.8354    8.6068   84.5327 O.3       1 BCD        -0.6534 
     23 C13         8.2376    6.1955   83.5943 C.3       1 BCD         0.0423 
     24 C23         9.4240    5.5029   82.8989 C.3       1 BCD         0.1782 
     25 O23        10.6205    6.2654   83.0146 O.3       1 BCD        -0.6230 
     26 C33         9.0798    5.1511   81.4300 C.3       1 BCD         0.1415 
     27 O33        10.1318    4.3916   80.8299 O.3       1 BCD        -0.6558 
     28 C43         7.7352    4.3986   81.3344 C.3       1 BCD         0.1313 
     29 O43         7.3659    4.3796   79.9473 O.3       1 BCD        -0.3425 
     30 C53         6.6391    5.0970   82.1854 C.3       1 BCD         0.1520 
     31 O53         7.0967    5.3792   83.5246 O.3       1 BCD        -0.3634 
     32 C63         5.3125    4.3045   82.2706 C.3       1 BCD         0.1175 
     33 O63         5.4765    3.0021   82.8246 O.3       1 BCD        -0.6534 
     34 C14         6.8464    3.1853   79.4295 C.3       1 BCD         0.0423 
     35 C24         7.8511    2.5955   78.4203 C.3       1 BCD         0.1782 
     36 O24         9.1133    2.3362   79.0267 O.3       1 BCD        -0.6230 
     37 C34         7.9858    3.5068   77.1725 C.3       1 BCD         0.1415 
     38 O34         8.8176    2.8939   76.1861 O.3       1 BCD        -0.6558 
     39 C44         6.6025    3.8856   76.5951 C.3       1 BCD         0.1313 
     40 O44         6.7788    4.9450   75.6403 O.3       1 BCD        -0.3425 
     41 C54         5.6468    4.3599   77.7205 C.3       1 BCD         0.1520 
     42 O54         5.6071    3.4205   78.8134 O.3       1 BCD        -0.3634 
     43 C64         4.2010    4.6112   77.2266 C.3       1 BCD         0.1175 
     44 O64         3.5790    3.4424   76.7000 O.3       1 BCD        -0.6534 
     45 C15         6.6530    4.6269   74.2782 C.3       1 BCD         0.0423 
     46 C25         7.8785    5.1656   73.5166 C.3       1 BCD         0.1782 
     47 O25         9.0887    4.5685   73.9682 O.3       1 BCD        -0.6230 
     48 C35         7.9304    6.7131   73.5661 C.3       1 BCD         0.1415 
     49 O35         8.9928    7.2083   72.7478 O.3       1 BCD        -0.6558 
     50 C45         6.5789    7.3347   73.1539 C.3       1 BCD         0.1313 
     51 O45         6.6290    8.7239   73.5128 O.3       1 BCD        -0.3425 
     52 C55         5.3953    6.6279   73.8699 C.3       1 BCD         0.1520 
     53 O55         5.4770    5.1912   73.7554 O.3       1 BCD        -0.3634 
     54 C65         4.0032    7.0901   73.3757 C.3       1 BCD         0.1175 
     55 O65         3.8073    6.8746   71.9811 O.3       1 BCD        -0.6534 
     56 C16         6.1338    9.6530   72.5874 C.3       1 BCD         0.0423 
     57 C26         7.3098   10.4580   72.0000 C.3       1 BCD         0.1782 
     58 O26         8.2513    9.6146   71.3448 O.3       1 BCD        -0.6230 
     59 C36         7.9777   11.3341   73.0913 C.3       1 BCD         0.1415 
     60 O36         9.0092   12.1460   72.5292 O.3       1 BCD        -0.6558 
     61 C46         6.9261   12.1739   73.8567 C.3       1 BCD         0.1313 
     62 O46         7.5331   12.7757   75.0121 O.3       1 BCD        -0.3425 
     63 C56         5.7428   11.2766   74.3066 C.3       1 BCD         0.1520 
     64 O56         5.2102   10.5097   73.2072 O.3       1 BCD        -0.3634 
     65 C66         4.5871   12.0708   74.9633 C.3       1 BCD         0.1175 
     66 O66         4.0006   13.0316   74.0896 O.3       1 BCD        -0.6534 
     67 C17         8.0131   14.0896   74.8767 C.3       1 BCD         0.0423 
     68 C27         9.4556   14.1634   75.4111 C.3       1 BCD         0.1782 
     69 O27        10.3423   13.3367   74.6655 O.3       1 BCD        -0.6230 
     70 C37         9.5008   13.8661   76.9305 C.3       1 BCD         0.1415 
     71 O37        10.8222   14.0542   77.4425 O.3       1 BCD        -0.6558 
     72 C47         8.4806   14.7347   77.6971 C.3       1 BCD         0.1313 
     73 O47         8.3829   14.2005   79.0262 O.3       1 BCD        -0.3425 
     74 C57         7.0922   14.7159   77.0010 C.3       1 BCD         0.1520 
     75 O57         7.1930   14.9830   75.5861 O.3       1 BCD        -0.3634 
     76 C67         6.0741   15.7011   77.6241 C.3       1 BCD         0.1175 
     77 O67         6.5164   17.0550   77.5895 O.3       1 BCD        -0.6534 
     78 H11         8.3447   16.1486   79.7728 H         1 BCD         0.1491 
     79 H21         9.7067   15.6140   81.7090 H         1 BCD         0.0695 
     80 HO21       11.6142   14.9092   80.7663 H         1 BCD         0.4234 
     81 H31         9.7157   12.6908   80.8339 H         1 BCD         0.0857 
     82 HO31       10.5187   12.5541   83.1194 H         1 BCD         0.4275 
     83 H41         8.3057   13.8666   83.2431 H         1 BCD         0.0783 
     84 H51         7.0107   12.9278   80.6415 H         1 BCD         0.0891 
     85 H611        5.4998   12.5832   82.5049 H         1 BCD         0.0651 
     86 H612        4.9305   13.8859   81.5126 H         1 BCD         0.0651 
     87 HO61        4.7983   14.4261   83.7211 H         1 BCD         0.4224 
     88 H12         7.5730   12.3720   84.6011 H         1 BCD         0.1491 
     89 H22         8.7105   10.5212   85.6786 H         1 BCD         0.0695 
     90 HO22       10.8573   10.9063   85.1405 H         1 BCD         0.4234 
     91 H32         9.5460    9.5201   82.9214 H         1 BCD         0.0857 
     92 HO32       10.3408    7.7517   84.0399 H         1 BCD         0.4275 
     93 H42         7.5042    8.2687   84.8216 H         1 BCD         0.0783 
     94 H52         7.0009    9.7326   82.2085 H         1 BCD         0.0891 
     95 H621        5.3479    7.9480   82.6503 H         1 BCD         0.0651 
     96 H622        4.6411    9.5365   82.7043 H         1 BCD         0.0651 
     97 HO62        4.7293    9.4565   84.9880 H         1 BCD         0.4224 
     98 H13         8.4203    6.2912   84.6705 H         1 BCD         0.1491 
     99 H23         9.5997    4.5705   83.4418 H         1 BCD         0.0695 
    100 HO23       11.3123    5.7591   82.5585 H         1 BCD         0.4234 
    101 H33         8.9923    6.0832   80.8657 H         1 BCD         0.0857 
    102 HO33        9.7433    3.8468   80.1177 H         1 BCD         0.4275 
    103 H43         7.8976    3.3859   81.7130 H         1 BCD         0.0783 
    104 H53         6.3967    6.0435   81.6985 H         1 BCD         0.0891 
    105 H631        4.8614    4.2234   81.2802 H         1 BCD         0.0651 
    106 H632        4.5920    4.8677   82.8672 H         1 BCD         0.0651 
    107 HO63        4.6005    2.5973   82.9210 H         1 BCD         0.4224 
    108 H14         6.5867    2.4657   80.2139 H         1 BCD         0.1491 
    109 H24         7.4456    1.6307   78.1049 H         1 BCD         0.0695 
    110 HO24        9.6570    1.8963   78.3534 H         1 BCD         0.4234 
    111 H34         8.4869    4.4281   77.4809 H         1 BCD         0.0857 
    112 HO34        8.8969    3.5124   75.4291 H         1 BCD         0.4275 
    113 H44         6.1528    3.0017   76.1363 H         1 BCD         0.0783 
    114 H54         6.0151    5.3169   78.0974 H         1 BCD         0.0891 
    115 H641        4.1983    5.3929   76.4653 H         1 BCD         0.0651 
    116 H642        3.5994    5.0040   78.0487 H         1 BCD         0.0651 
    117 HO64        2.6658    3.6618   76.4588 H         1 BCD         0.4224 
    118 H15         6.5250    3.5539   74.0990 H         1 BCD         0.1491 
    119 H25         7.7537    4.8600   72.4744 H         1 BCD         0.0695 
    120 HO25        9.7991    4.9497   73.4269 H         1 BCD         0.4234 
    121 H35         8.1472    7.0161   74.5938 H         1 BCD         0.0857 
    122 HO35        8.7421    8.0986   72.4310 H         1 BCD         0.4275 
    123 H45         6.4747    7.2104   72.0727 H         1 BCD         0.0783 
    124 H55         5.4438    6.8904   74.9290 H         1 BCD         0.0891 
    125 H651        3.8591    8.1479   73.6029 H         1 BCD         0.0651 
    126 H652        3.2267    6.5683   73.9386 H         1 BCD         0.0651 
    127 HO65        2.8937    7.1125   71.7591 H         1 BCD         0.4224 
    128 H16         5.5286    9.1816   71.8052 H         1 BCD         0.1491 
    129 H26         6.8879   11.1153   71.2353 H         1 BCD         0.0695 
    130 HO26        8.9098   10.2013   70.9390 H         1 BCD         0.4234 
    131 H36         8.4634   10.6667   73.8080 H         1 BCD         0.0857 
    132 HO36        9.4845   12.5758   73.2716 H         1 BCD         0.4275 
    133 H46         6.5172   12.9417   73.1951 H         1 BCD         0.0783 
    134 H56         6.1120   10.5844   75.0669 H         1 BCD         0.0891 
    135 H661        4.9453   12.5740   75.8626 H         1 BCD         0.0651 
    136 H662        3.8187   11.3755   75.3068 H         1 BCD         0.0651 
    137 HO66        3.2491   13.4426   74.5439 H         1 BCD         0.4224 
    138 H17         7.9594   14.4562   73.8455 H         1 BCD         0.1491 
    139 H27         9.7916   15.1917   75.2539 H         1 BCD         0.0695 
    140 HO27       11.2192   13.4450   75.0686 H         1 BCD         0.4234 
    141 H37         9.2422   12.8152   77.0838 H         1 BCD         0.0857 
    142 HO37       10.7557   14.2351   78.4015 H         1 BCD         0.4275 
    143 H47         8.8644   15.7582   77.7059 H         1 BCD         0.0783 
    144 H57         6.6696   13.7176   77.1307 H         1 BCD         0.0891 
    145 H671        5.8624   15.4156   78.6560 H         1 BCD         0.0651 
    146 H672        5.1193   15.6149   77.1016 H         1 BCD         0.0651 
    147 HO67        5.8054   17.6188   77.9318 H         1 BCD         0.4224 
    148 N           3.7570    8.7620   78.4576 N.3       2 ****        0.0000 
    149 C           4.8983    9.5727   78.1287 C.3       2 ****        0.0000 
    150 C           6.1749    8.7892   78.4043 C.3       2 ****        0.0000 
    151 C           7.3836    9.6478   78.0559 C.3       2 ****        0.0000 
    152 C           8.6601    8.8643   78.3315 C.3       2 ****        0.0000 
    153 C           9.8689    9.7229   77.9832 C.3       2 ****        0.0000 
    154 C          11.1455    8.9393   78.2588 C.3       2 ****        0.0000 
    155 C          12.3542    9.7979   77.9104 C.3       2 ****        0.0000 
    156 H           2.9024    9.2871   78.2729 H         2 ****        0.0000 
    157 H           3.7105    7.9663   77.8213 H         2 ****        0.0000 
    158 H           4.8886   10.4958   78.7505 H         2 ****        0.0000 
    159 H           4.8584    9.8495   77.0514 H         2 ****        0.0000 
    160 H           6.1846    7.8661   77.7826 H         2 ****        0.0000 
    161 H           6.2148    8.5123   79.4816 H         2 ****        0.0000 
    162 H           7.3739   10.5709   78.6778 H         2 ****        0.0000 
    163 H           7.3437    9.9246   76.9787 H         2 ****        0.0000 
    164 H           8.6699    7.9412   77.7098 H         2 ****        0.0000 
    165 H           8.7002    8.5874   79.4088 H         2 ****        0.0000 
    166 H           9.8592   10.6460   78.6050 H         2 ****        0.0000 
    167 H           9.8290    9.9997   76.9059 H         2 ****        0.0000 
    168 H          11.1552    8.0164   77.6370 H         2 ****        0.0000 
    169 H          11.1854    8.6625   79.3361 H         2 ****        0.0000 
    170 H          13.2871    9.2254   78.1118 H         2 ****        0.0000 
    171 H          12.3445   10.7210   78.5323 H         2 ****        0.0000 
    172 H          12.3142   10.0748   76.8331 H         2 ****        0.0000 
@<TRIPOS>BOND
     1    1    2 1    
     2    1    9 1    
     3    1   73 1    
     4    1   78 1    
     5    2    3 1    
     6    2    4 1    
     7    2   79 1    
     8    3   80 1    
     9    4    5 1    
    10    4    6 1    
    11    4   81 1    
    12    5   82 1    
    13    6    7 1    
    14    6    8 1    
    15    6   83 1    
    16    7   12 1    
    17    8    9 1    
    18    8   10 1    
    19    8   84 1    
    20   10   11 1    
    21   10   85 1    
    22   10   86 1    
    23   11   87 1    
    24   12   13 1    
    25   12   20 1    
    26   12   88 1    
    27   13   14 1    
    28   13   15 1    
    29   13   89 1    
    30   14   90 1    
    31   15   16 1    
    32   15   17 1    
    33   15   91 1    
    34   16   92 1    
    35   17   18 1    
    36   17   19 1    
    37   17   93 1    
    38   18   23 1    
    39   19   20 1    
    40   19   21 1    
    41   19   94 1    
    42   21   22 1    
    43   21   95 1    
    44   21   96 1    
    45   22   97 1    
    46   23   24 1    
    47   23   31 1    
    48   23   98 1    
    49   24   25 1    
    50   24   26 1    
    51   24   99 1    
    52   25  100 1    
    53   26   27 1    
    54   26   28 1    
    55   26  101 1    
    56   27  102 1    
    57   28   29 1    
    58   28   30 1    
    59   28  103 1    
    60   29   34 1    
    61   30   31 1    
    62   30   32 1    
    63   30  104 1    
    64   32   33 1    
    65   32  105 1    
    66   32  106 1    
    67   33  107 1    
    68   34   35 1    
    69   34   42 1    
    70   34  108 1    
    71   35   36 1    
    72   35   37 1    
    73   35  109 1    
    74   36  110 1    
    75   37   38 1    
    76   37   39 1    
    77   37  111 1    
    78   38  112 1    
    79   39   40 1    
    80   39   41 1    
    81   39  113 1    
    82   40   45 1    
    83   41   42 1    
    84   41   43 1    
    85   41  114 1    
    86   43   44 1    
    87   43  115 1    
    88   43  116 1    
    89   44  117 1    
    90   45   46 1    
    91   45   53 1    
    92   45  118 1    
    93   46   47 1    
    94   46   48 1    
    95   46  119 1    
    96   47  120 1    
    97   48   49 1    
    98   48   50 1    
    99   48  121 1    
   100   49  122 1    
   101   50   51 1    
   102   50   52 1    
   103   50  123 1    
   104   51   56 1    
   105   52   53 1    
   106   52   54 1    
   107   52  124 1    
   108   54   55 1    
   109   54  125 1    
   110   54  126 1    
   111   55  127 1    
   112   56   57 1    
   113   56   64 1    
   114   56  128 1    
   115   57   58 1    
   116   57   59 1    
   117   57  129 1    
   118   58  130 1    
   119   59   60 1    
   120   59   61 1    
   121   59  131 1    
   122   60  132 1    
   123   61   62 1    
   124   61   63 1    
   125   61  133 1    
   126   62   67 1    
   127   63   64 1    
   128   63   65 1    
   129   63  134 1    
   130   65   66 1    
   131   65  135 1    
   132   65  136 1    
   133   66  137 1    
   134   67   68 1    
   135   67   75 1    
   136   67  138 1    
   137   68   69 1    
   138   68   70 1    
   139   68  139 1    
   140   69  140 1    
   141   70   71 1    
   142   70   72 1    
   143   70  141 1    
   144   71  142 1    
   145   72   73 1    
   146   72   74 1    
   147   72  143 1    
   148   74   75 1    
   149   74   76 1    
   150   74  144 1    
   151   76   77 1    
   152   76  145 1    
   153   76  146 1    
   154   77  147 1    
   155  148  149 1    
   156  148  156 1    
   157  148  157 1    
   158  149  150 1    
   159  149  158 1    
   160  149  159 1    
   161  150  151 1    
   162  150  160 1    
   163  150  161 1    
   164  151  152 1    
   165  151  162 1    
   166  151  163 1    
   167  152  153 1    
   168  152  164 1    
   169  152  165 1    
   170  153  154 1    
   171  153  166 1    
   172  153  167 1    
   173  154  155 1    
   174  154  168 1    
   175  154  169 1    
   176  155  170 1    
   177  155  171 1    
   178  155  172 1    
@<TRIPOS>SUBSTRUCTURE
     1 BCD         1 GROUP             0       ****    0 ROOT    
     2 ****      148 GROUP             0       ****    0 ROOT    
