@<TRIPOS>MOLECULE
Cpptraj
  147   154     1     0     0
SMALL
No Charge or Current Charge


@<TRIPOS>ATOM
      1 C1          -4.4380    -4.3050     2.4840 C.3        1 MGO       0.042700
      2 H1          -5.5240    -4.4790     2.3550 H          1 MGO       0.161000
      3 O1          -4.1510    -2.8970     2.7870 O.3        1 MGO      -0.322900
      4 C2          -3.9560    -5.1660     3.6480 C.3        1 MGO       0.137600
      5 H2          -4.2130    -6.2120     3.4640 H          1 MGO       0.065000
      6 O2          -4.5760    -4.7240     4.8680 O.3        1 MGO      -0.634600
      7 HO2         -4.9370    -3.8300     4.7520 H          1 MGO       0.436600
      8 C3          -2.4600    -5.0240     3.8370 C.3        1 MGO       0.122400
      9 H3          -2.2230    -3.9980     4.1320 H          1 MGO       0.177900
     10 O3          -2.0860    -5.9500     4.8710 O.3        1 MGO      -0.620000
     11 HO3         -2.8020    -5.9340     5.5210 H          1 MGO       0.422000
     12 C4          -1.7320    -5.3810     2.5510 C.3        1 MGO       0.040100
     13 H4          -1.8830    -6.4420     2.3390 H          1 MGO       0.159500
     14 C5          -2.2450    -4.5420     1.3700 C.3        1 MGO       0.019300
     15 H5          -2.0410    -3.4920     1.5920 H          1 MGO       0.115600
     16 O5          -3.7180    -4.7110     1.2610 O.3        1 MGO      -0.366800
     17 C6          -1.6090    -4.8190    -0.0010 C.3        1 MGO       0.191800
     18 H61         -0.7290    -4.1850    -0.1320 H          1 MGO       0.025400
     19 H62         -2.3180    -4.5850    -0.7970 H          1 MGO       0.025400
     20 O6          -1.2030    -6.1900    -0.1060 O.3        1 MGO      -0.607700
     21 HO6         -0.2950    -6.2610     0.2150 H          1 MGO       0.409700
     22 C1          -6.1330     0.7850     2.4850 C.3        2 MGO       0.042700
     23 H1          -6.9460     1.5260     2.3570 H          2 MGO       0.161000
     24 O1          -4.8530     1.4390     2.7880 O.3        2 MGO      -0.322900
     25 C2          -6.5050    -0.1280     3.6500 C.3        2 MGO       0.137600
     26 H2          -7.4840    -0.5790     3.4650 H          2 MGO       0.065000
     27 O2          -6.5450     0.6310     4.8680 O.3        2 MGO      -0.634600
     28 HO2         -6.0720     1.4720     4.7530 H          2 MGO       0.436600
     29 C3          -5.4610    -1.2090     3.8370 C.3        2 MGO       0.122400
     30 H3          -4.5110    -0.7550     4.1320 H          2 MGO       0.177900
     31 O3          -5.9520    -2.0790     4.8700 O.3        2 MGO      -0.620000
     32 HO3         -6.3860    -1.5100     5.5220 H          2 MGO       0.422000
     33 C4          -5.2860    -2.0010     2.5510 C.3        2 MGO       0.040100
     34 H4          -6.2110    -2.5450     2.3390 H          2 MGO       0.159500
     35 C5          -4.9510    -1.0780     1.3700 C.3        2 MGO       0.019300
     36 H5          -4.0040    -0.5820     1.5930 H          2 MGO       0.115600
     37 O5          -6.0020    -0.0300     1.2620 O.3        2 MGO      -0.366800
     38 C6          -4.7710    -1.7460     0.0000 C.3        2 MGO       0.191800
     39 H61         -3.7270    -2.0380    -0.1330 H          2 MGO       0.025400
     40 H62         -5.0300    -1.0450    -0.7970 H          2 MGO       0.025400
     41 O6          -5.5910    -2.9180    -0.1060 O.3        2 MGO      -0.607700
     42 HO6         -5.0800    -3.6730     0.2150 H          2 MGO       0.409700
     43 C1          -3.2100     5.2850     2.4860 C.3        3 MGO       0.042700
     44 H1          -3.1370     6.3820     2.3570 H          3 MGO       0.161000
     45 O1          -1.9010     4.6910     2.7880 O.3        3 MGO      -0.322900
     46 C2          -4.1550     5.0060     3.6500 C.3        3 MGO       0.137600
     47 H2          -5.1190     5.4900     3.4660 H          3 MGO       0.065000
     48 O2          -3.5860     5.5110     4.8690 O.3        3 MGO      -0.634600
     49 HO2         -2.6350     5.6650     4.7530 H          3 MGO       0.436600
     50 C3          -4.3500     3.5150     3.8380 C.3        3 MGO       0.122400
     51 H3          -3.4020     3.0560     4.1330 H          3 MGO       0.177900
     52 O3          -5.3360     3.3570     4.8710 O.3        3 MGO      -0.620000
     53 HO3         -5.1600     4.0510     5.5230 H          3 MGO       0.422000
     54 C4          -4.8610     2.8860     2.5520 C.3        3 MGO       0.040100
     55 H4          -5.8620     3.2700     2.3400 H          3 MGO       0.159500
     56 C5          -3.9310     3.2000     1.3710 C.3        3 MGO       0.019300
     57 H5          -2.9520     2.7680     1.5930 H          3 MGO       0.115600
     58 O5          -3.7660     4.6740     1.2630 O.3        3 MGO      -0.366800
     59 C6          -4.3410     2.6420     0.0010 C.3        3 MGO       0.191800
     60 H61         -3.9190     1.6440    -0.1320 H          3 MGO       0.025400
     61 H62         -3.9550     3.2820    -0.7970 H          3 MGO       0.025400
     62 O6          -5.7690     2.5520    -0.1050 O.3        3 MGO      -0.607700
     63 HO6         -6.0390     1.6820     0.2160 H          3 MGO       0.409700
     64 C1           2.1310     5.8050     2.4840 C.3        4 MGO       0.042700
     65 H1           3.0340     6.4320     2.3560 H          4 MGO       0.161000
     66 O1           2.4810     4.4110     2.7870 O.3        4 MGO      -0.322900
     67 C2           1.3230     6.3700     3.6490 C.3        4 MGO       0.137600
     68 H2           1.1010     7.4250     3.4640 H          4 MGO       0.065000
     69 O2           2.0730     6.2410     4.8680 O.3        4 MGO      -0.634600
     70 HO2          2.7870     5.5930     4.7520 H          4 MGO       0.436600
     71 C3           0.0370     5.5930     3.8370 C.3        4 MGO       0.122400
     72 H3           0.2680     4.5660     4.1330 H          4 MGO       0.177900
     73 O3          -0.7020     6.2650     4.8700 O.3        4 MGO      -0.620000
     74 HO3         -0.0500     6.5610     5.5210 H          4 MGO       0.422000
     75 C4          -0.7750     5.5990     2.5520 C.3        4 MGO       0.040100
     76 H4          -1.0980     6.6210     2.3390 H          4 MGO       0.159500
     77 C5           0.0510     5.0670     1.3710 C.3        4 MGO       0.019300
     78 H5           0.3240     4.0330     1.5930 H          4 MGO       0.115600
     79 O5           1.3060     5.8580     1.2620 O.3        4 MGO      -0.366800
     80 C6          -0.6420     5.0410     0.0000 C.3        4 MGO       0.191800
     81 H61         -1.1590     4.0870    -0.1320 H          4 MGO       0.025400
     82 H62          0.0990     5.1370    -0.7970 H          4 MGO       0.025400
     83 O6          -1.6020     6.0990    -0.1050 O.3        4 MGO      -0.607700
     84 HO6         -2.4510     5.7700     0.2170 H          4 MGO       0.409700
     85 C1           5.8660     1.9540     2.4840 C.3        5 MGO       0.042700
     86 H1           6.9200     1.6390     2.3540 H          5 MGO       0.161000
     87 O1           4.9960     0.8100     2.7870 O.3        5 MGO      -0.322900
     88 C2           5.8050     2.9380     3.6480 C.3        5 MGO       0.137600
     89 H2           6.4920     3.7690     3.4630 H          5 MGO       0.065000
     90 O2           6.1720     2.2710     4.8670 O.3        5 MGO      -0.634600
     91 HO2          6.1100     1.3090     4.7520 H          5 MGO       0.436600
     92 C3           4.3960     3.4600     3.8360 C.3        5 MGO       0.122400
     93 H3           3.7370     2.6380     4.1320 H          5 MGO       0.177900
     94 O3           4.4600     4.4560     4.8700 O.3        5 MGO      -0.620000
     95 HO3          5.0980     4.1310     5.5200 H          5 MGO       0.422000
     96 C4           3.8950     4.0970     2.5510 C.3        5 MGO       0.040100
     97 H4           4.4920     4.9880     2.3380 H          5 MGO       0.159500
     98 C5           3.9920     3.1190     1.3700 C.3        5 MGO       0.019300
     99 H5           3.3550     2.2610     1.5930 H          5 MGO       0.115600
    100 O5           5.3940     2.6320     1.2610 O.3        5 MGO      -0.366800
    101 C6           3.5400     3.6430    -0.0010 C.3        5 MGO       0.191800
    102 H61          2.4720     3.4540    -0.1330 H          5 MGO       0.025400
    103 H62          4.0770     3.1250    -0.7980 H          5 MGO       0.025400
    104 O6           3.7700     5.0550    -0.1070 O.3        5 MGO      -0.607700
    105 HO6          2.9820     5.5130     0.2160 H          5 MGO       0.409700
    106 C1           5.1850    -3.3690     2.4850 C.3        6 MGO       0.042700
    107 H1           5.5970    -4.3890     2.3570 H          6 MGO       0.161000
    108 O1           3.7480    -3.4020     2.7870 O.3        6 MGO      -0.322900
    109 C2           5.9170    -2.7070     3.6490 C.3        6 MGO       0.137600
    110 H2           6.9940    -2.7250     3.4650 H          6 MGO       0.065000
    111 O2           5.6230    -3.4090     4.8680 O.3        6 MGO      -0.634600
    112 HO2          4.8330    -3.9610     4.7530 H          6 MGO       0.436600
    113 C3           5.4450    -1.2800     3.8380 C.3        6 MGO       0.122400
    114 H3           4.3920    -1.2770     4.1330 H          6 MGO       0.177900
    115 O3           6.2640    -0.7090     4.8710 O.3        6 MGO      -0.620000
    116 HO3          6.4080    -1.4100     5.5220 H          6 MGO       0.422000
    117 C4           5.6320    -0.4910     2.5510 C.3        6 MGO       0.040100
    118 H4           6.7000    -0.4020     2.3390 H          6 MGO       0.159500
    119 C5           4.9280    -1.1780     1.3710 C.3        6 MGO       0.019300
    120 H5           3.8610    -1.2130     1.5920 H          6 MGO       0.115600
    121 O5           5.4210    -2.5770     1.2620 O.3        6 MGO      -0.366800
    122 C6           5.0570    -0.4970     0.0000 C.3        6 MGO       0.191800
    123 H61          4.2430     0.2190    -0.1330 H          6 MGO       0.025400
    124 H62          4.9870    -1.2420    -0.7970 H          6 MGO       0.025400
    125 O6           6.3040     0.2030    -0.1060 O.3        6 MGO      -0.607700
    126 HO6          6.1710     1.1050     0.2150 H          6 MGO       0.409700
    127 C1           0.5990    -6.1540     2.4850 C.3        7 MGO       0.042700
    128 H1           0.0570    -7.1110     2.3560 H          7 MGO       0.161000
    129 O1          -0.3220    -5.0510     2.7870 O.3        7 MGO      -0.322900
    130 C2           1.5720    -6.3140     3.6500 C.3        7 MGO       0.137600
    131 H2           2.2300    -7.1670     3.4650 H          7 MGO       0.065000
    132 O2           0.8400    -6.5210     4.8680 O.3        7 MGO      -0.634600
    133 HO2         -0.0840    -6.2480     4.7530 H          7 MGO       0.436600
    134 C3           2.3940    -5.0550     3.8380 C.3        7 MGO       0.122400
    135 H3           1.7400    -4.2300     4.1330 H          7 MGO       0.177900
    136 O3           3.3510    -5.3400     4.8720 O.3        7 MGO      -0.620000
    137 HO3          2.8920    -5.8890     5.5220 H          7 MGO       0.422000
    138 C4           3.1280    -4.7080     2.5520 C.3        7 MGO       0.040100
    139 H4           3.8630    -5.4890     2.3400 H          7 MGO       0.159500
    140 C5           2.1530    -4.5870     1.3700 C.3        7 MGO       0.019300
    141 H5           1.4580    -3.7740     1.5930 H          7 MGO       0.115600
    142 O5           1.3660    -5.8450     1.2630 O.3        7 MGO      -0.366800
    143 C6           2.7650    -4.2630     0.0000 C.3        7 MGO       0.191800
    144 H61          2.8180    -3.1810    -0.1330 H          7 MGO       0.025400
    145 H62          2.1400    -4.6720    -0.7970 H          7 MGO       0.025400
    146 O6           4.0900    -4.8020    -0.1050 O.3        7 MGO      -0.607700
    147 HO6          4.7120    -4.1360     0.2170 H          7 MGO       0.409700
@<TRIPOS>BOND
     1    17    20 1   
     2    14    16 1   
     3    14    17 1   
     4    12    14 1   
     5    12   129 1   
     6     8    10 1   
     7     8    12 1   
     8     4     6 1   
     9     4     8 1   
    10     3    33 1   
    11     1     3 1   
    12     1     4 1   
    13     1    16 1   
    14    38    41 1   
    15    35    37 1   
    16    35    38 1   
    17    33    35 1   
    18    29    31 1   
    19    29    33 1   
    20    25    27 1   
    21    25    29 1   
    22    24    54 1   
    23    22    24 1   
    24    22    25 1   
    25    22    37 1   
    26    59    62 1   
    27    56    58 1   
    28    56    59 1   
    29    54    56 1   
    30    50    52 1   
    31    50    54 1   
    32    46    48 1   
    33    46    50 1   
    34    45    75 1   
    35    43    45 1   
    36    43    46 1   
    37    43    58 1   
    38    80    83 1   
    39    77    79 1   
    40    77    80 1   
    41    75    77 1   
    42    71    73 1   
    43    71    75 1   
    44    67    69 1   
    45    67    71 1   
    46    66    96 1   
    47    64    66 1   
    48    64    67 1   
    49    64    79 1   
    50   101   104 1   
    51    98   100 1   
    52    98   101 1   
    53    96    98 1   
    54    92    94 1   
    55    92    96 1   
    56    88    90 1   
    57    88    92 1   
    58    87   117 1   
    59    85    87 1   
    60    85    88 1   
    61    85   100 1   
    62   122   125 1   
    63   119   121 1   
    64   119   122 1   
    65   117   119 1   
    66   113   115 1   
    67   113   117 1   
    68   109   111 1   
    69   109   113 1   
    70   108   138 1   
    71   106   108 1   
    72   106   109 1   
    73   106   121 1   
    74   143   146 1   
    75   140   142 1   
    76   140   143 1   
    77   138   140 1   
    78   134   136 1   
    79   134   138 1   
    80   130   132 1   
    81   130   134 1   
    82   127   129 1   
    83   127   130 1   
    84   127   142 1   
    85    20    21 1   
    86    17    18 1   
    87    17    19 1   
    88    14    15 1   
    89    12    13 1   
    90    10    11 1   
    91     8     9 1   
    92     6     7 1   
    93     4     5 1   
    94     1     2 1   
    95    41    42 1   
    96    38    39 1   
    97    38    40 1   
    98    35    36 1   
    99    33    34 1   
   100    31    32 1   
   101    29    30 1   
   102    27    28 1   
   103    25    26 1   
   104    22    23 1   
   105    62    63 1   
   106    59    60 1   
   107    59    61 1   
   108    56    57 1   
   109    54    55 1   
   110    52    53 1   
   111    50    51 1   
   112    48    49 1   
   113    46    47 1   
   114    43    44 1   
   115    83    84 1   
   116    80    81 1   
   117    80    82 1   
   118    77    78 1   
   119    75    76 1   
   120    73    74 1   
   121    71    72 1   
   122    69    70 1   
   123    67    68 1   
   124    64    65 1   
   125   104   105 1   
   126   101   102 1   
   127   101   103 1   
   128    98    99 1   
   129    96    97 1   
   130    94    95 1   
   131    92    93 1   
   132    90    91 1   
   133    88    89 1   
   134    85    86 1   
   135   125   126 1   
   136   122   123 1   
   137   122   124 1   
   138   119   120 1   
   139   117   118 1   
   140   115   116 1   
   141   113   114 1   
   142   111   112 1   
   143   109   110 1   
   144   106   107 1   
   145   146   147 1   
   146   143   144 1   
   147   143   145 1   
   148   140   141 1   
   149   138   139 1   
   150   136   137 1   
   151   134   135 1   
   152   132   133 1   
   153   130   131 1   
   154   127   128 1   
@<TRIPOS>SUBSTRUCTURE
     1 MGO         1 TEMP              0 ****  ****    0 ROOT
