@<TRIPOS>MOLECULE
Cpptraj generated mol2 file.
 6804  6798  2231     0     0
SMALL
USER_CHARGES


@<TRIPOS>ATOM
      1 C1         18.4181   15.2335   35.3629 c3         1 MGO      0.304529
      2 H1         17.5488   14.6037   35.6030 h2         1 MGO      0.090782
      3 O1         18.0752   16.6000   35.3342 os         1 MGO     -0.453070
      4 C2         19.5460   14.8806   36.2958 c3         1 MGO      0.092199
      5 H2         19.7409   13.8051   36.2988 h1         1 MGO      0.102926
      6 O2         19.2580   15.3576   37.6442 oh         1 MGO     -0.586639
      7 HO2        19.0772   16.3027   37.4933 ho         1 MGO      0.425065
      8 C3         20.8863   15.4962   35.7709 c3         1 MGO      0.093211
      9 H3         20.8129   16.5643   35.9912 h1         1 MGO      0.064468
     10 O3         22.0170   14.8943   36.4752 oh         1 MGO     -0.592567
     11 HO3        21.9496   15.2323   37.3862 ho         1 MGO      0.421017
     12 C4         21.1913   15.3554   34.3087 c3         1 MGO      0.127621
     13 H4         21.5336   14.3416   34.0860 h1         1 MGO      0.080661
     14 C5         19.9437   15.4906   33.3807 c3         1 MGO      0.104343
     15 H5         19.7054   16.5546   33.3052 h1         1 MGO      0.068516
     16 O5         18.9038   14.7913   34.0692 os         1 MGO     -0.427383
     17 C6         20.1579   15.0509   31.9354 c3         1 MGO      0.141081
     18 H61        20.8196   15.7477   31.4148 h1         1 MGO      0.057384
     19 H62        19.1504   15.2075   31.5415 h1         1 MGO      0.057384
     20 O6         20.6432   13.6870   31.7121 oh         1 MGO     -0.593555
     21 HO6        20.3115   13.4411   30.8299 ho         1 MGO      0.422027
     22 C1         15.7329   19.9047   36.4974 c3         2 MGO      0.304529
     23 H1         15.0905   20.5746   37.0877 h2         2 MGO      0.090782
     24 O1         16.3463   20.4964   35.3469 os         2 MGO     -0.453070
     25 C2         16.8663   19.5283   37.5328 c3         2 MGO      0.092199
     26 H2         16.4829   19.0908   38.4581 h1         2 MGO      0.102926
     27 O2         17.6058   20.6685   37.9971 oh         2 MGO     -0.586639
     28 HO2        18.3933   20.6838   37.4241 ho         2 MGO      0.425065
     29 C3         17.8626   18.5018   36.8344 c3         2 MGO      0.093211
     30 H3         18.3045   19.0471   35.9966 h1         2 MGO      0.064468
     31 O3         18.9639   18.0984   37.7709 oh         2 MGO     -0.592567
     32 HO3        19.5658   18.8429   37.9504 ho         2 MGO      0.421017
     33 C4         17.1462   17.1938   36.3140 c3         2 MGO      0.127621
     34 H4         16.9568   16.5174   37.1514 h1         2 MGO      0.080661
     35 C5         15.8315   17.5404   35.5400 c3         2 MGO      0.104343
     36 H5         16.0909   18.0601   34.6141 h1         2 MGO      0.068516
     37 O5         15.1032   18.6044   36.2177 os         2 MGO     -0.427383
     38 C6         14.8580   16.4532   35.2088 c3         2 MGO      0.141081
     39 H61        15.1556   16.0175   34.2516 h1         2 MGO      0.057384
     40 H62        13.8361   16.8340   35.1351 h1         2 MGO      0.057384
     41 O6         14.8495   15.4640   36.2768 oh         2 MGO     -0.593555
     42 HO6        14.6993   15.9867   37.0848 ho         2 MGO      0.422027
     43 C1         15.1614   23.7829   32.8416 c3         3 MGO      0.304529
     44 H1         14.5896   24.3451   32.0886 h2         3 MGO      0.090782
     45 O1         16.3044   24.5315   33.3533 os         3 MGO     -0.453070
     46 C2         14.2487   23.4724   34.0842 c3         3 MGO      0.092199
     47 H2         13.3979   22.9504   33.6391 h1         3 MGO      0.102926
     48 O2         13.9483   24.7643   34.5832 oh         3 MGO     -0.586639
     49 HO2        14.7010   24.9575   35.1703 ho         3 MGO      0.425065
     50 C3         14.9961   22.5458   35.1610 c3         3 MGO      0.093211
     51 H3         15.9021   23.0505   35.5060 h1         3 MGO      0.064468
     52 O3         14.1162   22.3046   36.3011 oh         3 MGO     -0.592567
     53 HO3        13.4885   23.0470   36.2423 ho         3 MGO      0.421017
     54 C4         15.4579   21.2816   34.5038 c3         3 MGO      0.127621
     55 H4         14.5069   20.7842   34.2967 h1         3 MGO      0.080661
     56 C5         16.2981   21.5763   33.2491 c3         3 MGO      0.104343
     57 H5         17.2509   22.0218   33.5465 h1         3 MGO      0.068516
     58 O5         15.5914   22.4526   32.2931 os         3 MGO     -0.427383
     59 C6         16.6738   20.2794   32.4510 c3         3 MGO      0.141081
     60 H61        17.1772   19.5575   33.0991 h1         3 MGO      0.057384
     61 H62        17.3309   20.4311   31.5908 h1         3 MGO      0.057384
     62 O6         15.4661   19.5937   32.0166 oh         3 MGO     -0.593555
     63 HO6        15.8455   19.0415   31.3097 ho         3 MGO      0.422027
     64 C1         19.7757   26.3136   31.8132 c3         4 MGO      0.304529
     65 H1         20.4852   26.9429   31.2559 h2         4 MGO      0.090782
     66 O1         20.5029   25.3790   32.6732 os         4 MGO     -0.453070
     67 C2         18.7918   27.2903   32.6832 c3         4 MGO      0.092199
     68 H2         18.1036   27.7862   31.9939 h1         4 MGO      0.102926
     69 O2         19.5812   28.2684   33.4488 oh         4 MGO     -0.586639
     70 HO2        20.1216   27.6882   34.0144 ho         4 MGO      0.425065
     71 C3         17.7814   26.4160   33.4186 c3         4 MGO      0.093211
     72 H3         18.3015   25.8618   34.2041 h1         4 MGO      0.064468
     73 O3         16.8399   27.3020   34.0474 oh         4 MGO     -0.592567
     74 HO3        16.3302   26.6768   34.5933 ho         4 MGO      0.421017
     75 C4         16.9804   25.4394   32.4763 c3         4 MGO      0.127621
     76 H4         16.3096   26.2051   32.0783 h1         4 MGO      0.080661
     77 C5         17.9132   24.6669   31.4985 c3         4 MGO      0.104343
     78 H5         18.4199   23.8491   32.0173 h1         4 MGO      0.068516
     79 O5         18.9343   25.6075   30.8876 os         4 MGO     -0.427383
     80 C6         17.2728   24.0746   30.2476 c3         4 MGO      0.141081
     81 H61        16.2839   23.7146   30.5427 h1         4 MGO      0.057384
     82 H62        17.8759   23.2532   29.8524 h1         4 MGO      0.057384
     83 O6         16.9932   25.0271   29.3519 oh         4 MGO     -0.593555
     84 HO6        17.7341   25.6577   29.3981 ho         4 MGO      0.422027
     85 C1         24.3240   25.0831   34.5721 c3         5 MGO      0.304529
     86 H1         25.3184   25.3879   34.9302 h2         5 MGO      0.090782
     87 O1         23.9264   23.7391   34.9364 os         5 MGO     -0.453070
     88 C2         23.3293   26.0531   35.2027 c3         5 MGO      0.092199
     89 H2         23.5925   27.0718   34.9069 h1         5 MGO      0.102926
     90 O2         23.3804   26.1554   36.6731 oh         5 MGO     -0.586639
     91 HO2        23.1312   25.2927   37.0503 ho         5 MGO      0.425065
     92 C3         21.8753   25.8444   34.7060 c3         5 MGO      0.093211
     93 H3         21.4392   24.9139   35.0783 h1         5 MGO      0.064468
     94 O3         21.1190   27.0005   35.0669 oh         5 MGO     -0.592567
     95 HO3        20.4069   26.8058   35.7022 ho         5 MGO      0.421017
     96 C4         21.8195   25.7220   33.1655 c3         5 MGO      0.127621
     97 H4         22.0174   26.7358   32.8079 h1         5 MGO      0.080661
     98 C5         22.9432   24.8726   32.5468 c3         5 MGO      0.104343
     99 H5         22.7550   23.8169   32.7584 h1         5 MGO      0.068516
    100 O5         24.1851   25.3267   33.1485 os         5 MGO     -0.427383
    101 C6         23.1279   24.9495   31.0978 c3         5 MGO      0.141081
    102 H61        22.2108   24.5473   30.6598 h1         5 MGO      0.057384
    103 H62        24.0195   24.3867   30.8098 h1         5 MGO      0.057384
    104 O6         23.0868   26.2937   30.7021 oh         5 MGO     -0.593555
    105 HO6        23.8291   26.8428   31.0122 ho         5 MGO      0.422027
    106 C1         25.8140   20.0406   34.9634 c3         6 MGO      0.304529
    107 H1         26.5880   19.2739   35.1150 h2         6 MGO      0.090782
    108 O1         24.6224   19.3986   34.3080 os         6 MGO     -0.453070
    109 C2         25.5245   20.6445   36.4216 c3         6 MGO      0.092199
    110 H2         26.4599   21.1019   36.7538 h1         6 MGO      0.102926
    111 O2         25.0577   19.6377   37.4188 oh         6 MGO     -0.586639
    112 HO2        24.1127   19.4319   37.3032 ho         6 MGO      0.425065
    113 C3         24.4530   21.8162   36.1712 c3         6 MGO      0.093211
    114 H3         23.5447   21.4026   35.7257 h1         6 MGO      0.064468
    115 O3         24.2682   22.3763   37.4784 oh         6 MGO     -0.592567
    116 HO3        23.4872   22.9474   37.3659 ho         6 MGO      0.421017
    117 C4         25.0419   22.8560   35.1514 c3         6 MGO      0.127621
    118 H4         25.8884   23.3591   35.6257 h1         6 MGO      0.080661
    119 C5         25.5168   22.1663   33.8434 c3         6 MGO      0.104343
    120 H5         24.5964   21.7660   33.4105 h1         6 MGO      0.068516
    121 O5         26.3755   21.0507   34.1431 os         6 MGO     -0.427383
    122 C6         26.3662   22.9722   32.8139 c3         6 MGO      0.141081
    123 H61        25.8472   23.9032   32.5720 h1         6 MGO      0.057384
    124 H62        26.4763   22.3791   31.9025 h1         6 MGO      0.057384
    125 O6         27.6643   23.1877   33.3925 oh         6 MGO     -0.593555
    126 HO6        27.8272   22.3559   33.8724 ho         6 MGO      0.422027
    127 C1         23.1533   16.0252   32.9343 c3         7 MGO      0.304529
    128 H1         22.8408   15.1418   32.3583 h2         7 MGO      0.090782
    129 O1         22.1635   16.4044   33.9098 os         7 MGO     -0.453070
    130 C2         24.5112   15.7288   33.6331 c3         7 MGO      0.092199
    131 H2         25.3247   15.6347   32.9092 h1         7 MGO      0.102926
    132 O2         24.4092   14.5417   34.4023 oh         7 MGO     -0.586639
    133 HO2        23.8579   14.9290   35.1057 ho         7 MGO      0.425065
    134 C3         24.9848   16.9634   34.4692 c3         7 MGO      0.093211
    135 H3         24.2943   17.1346   35.2989 h1         7 MGO      0.064468
    136 O3         26.3155   16.9325   34.9280 oh         7 MGO     -0.592567
    137 HO3        26.4365   16.2007   35.5593 ho         7 MGO      0.421017
    138 C4         24.9331   18.2491   33.4761 c3         7 MGO      0.127621
    139 H4         25.8565   18.3540   32.9007 h1         7 MGO      0.080661
    140 C5         23.6751   18.3074   32.5622 c3         7 MGO      0.104343
    141 H5         22.8755   18.7123   33.1879 h1         7 MGO      0.068516
    142 O5         23.3904   17.0449   32.0263 os         7 MGO     -0.427383
    143 C6         23.7889   19.3753   31.4566 c3         7 MGO      0.141081
    144 H61        23.8947   20.3935   31.8396 h1         7 MGO      0.057384
    145 H62        22.8911   19.2587   30.8441 h1         7 MGO      0.057384
    146 O6         24.8819   19.0442   30.6317 oh         7 MGO     -0.593555
    147 HO6        24.6536   18.1844   30.2351 ho         7 MGO      0.422027
    148 C1         20.1949   20.5630   31.9853 ca         8 BEN     -0.161879
    149 H1         20.3547   20.4501   30.9160 ha         8 BEN      0.097073
    150 C2         20.2451   19.4991   32.8467 ca         8 BEN     -0.165876
    151 H2         20.5034   18.5097   32.4781 ha         8 BEN      0.101076
    152 C3         20.2110   19.7296   34.2016 ca         8 BEN     -0.108918
    153 H3         20.5518   18.8952   34.8092 ha         8 BEN      0.148111
    154 C4         20.0855   21.0114   34.6979 ca         8 BEN     -0.123507
    155 C5         20.0820   22.1232   33.8204 ca         8 BEN     -0.108918
    156 H4         20.0187   23.1478   34.1780 ha         8 BEN      0.148111
    157 C6         20.0025   21.8860   32.4106 ca         8 BEN     -0.165876
    158 H5         20.1760   22.6239   31.6315 ha         8 BEN      0.101076
    159 C7         20.1373   21.2927   36.2009 c          8 BEN      0.906879
    160 O1         19.8958   22.4000   36.5674 o          8 BEN     -0.833675
    161 O2         20.3188   20.4349   37.0345 o          8 BEN     -0.833677
    162 Na+        24.9711   20.8964   39.3364 Na+        9 Na+      1.000000
    163 Na+        25.9034    0.0465   36.0295 Na+       10 Na+      1.000000
    164 Na+        32.6322   27.8869    4.1764 Na+       11 Na+      1.000000
    165 Na+        12.3488    6.3083   11.9896 Na+       12 Na+      1.000000
    166 Na+        35.0405   36.2827   17.9964 Na+       13 Na+      1.000000
    167 Na+         3.6559   34.2716   13.1254 Na+       14 Na+      1.000000
    168 Na+         8.5462   31.7656    0.3069 Na+       15 Na+      1.000000
    169 Cl-        26.1731    3.2961    3.4497 Cl-       16 Cl-     -1.000000
    170 Cl-         3.3297    3.8005    2.1600 Cl-       17 Cl-     -1.000000
    171 Cl-        16.4840   23.8643   22.8444 Cl-       18 Cl-     -1.000000
    172 Cl-         1.6541   23.1831   46.8654 Cl-       19 Cl-     -1.000000
    173 Cl-        18.9580   10.0092    8.1089 Cl-       20 Cl-     -1.000000
    174 Cl-         4.2308    2.0723    6.8982 Cl-       21 Cl-     -1.000000
    175 O           1.1972    8.5518    2.4012 OW        22 WAT     -0.834000
    176 H1          1.6773    8.9526    1.6765 HW        22 WAT      0.417000
    177 H2          1.7526    7.8252    2.6836 HW        22 WAT      0.417000
    178 O          19.1435   35.4101   20.3835 OW        23 WAT     -0.834000
    179 H1         18.2679   35.2164   20.0487 HW        23 WAT      0.417000
    180 H2         19.1341   36.3531   20.5471 HW        23 WAT      0.417000
    181 O          33.5354   36.2864   44.6944 OW        24 WAT     -0.834000
    182 H1         32.8459   35.6426   44.8571 HW        24 WAT      0.417000
    183 H2         33.1363   36.9190   44.0971 HW        24 WAT      0.417000
    184 O           5.3909   16.0567    6.7099 OW        25 WAT     -0.834000
    185 H1          5.1366   15.7738    5.8315 HW        25 WAT      0.417000
    186 H2          4.8756   15.5044    7.2979 HW        25 WAT      0.417000
    187 O          29.0909   11.0583   24.0861 OW        26 WAT     -0.834000
    188 H1         29.8466   10.6643   24.5218 HW        26 WAT      0.417000
    189 H2         28.9802   10.5436   23.2866 HW        26 WAT      0.417000
    190 O          30.8429   29.4817   50.4477 OW        27 WAT     -0.834000
    191 H1         31.4330   29.4644   49.6942 HW        27 WAT      0.417000
    192 H2         30.9135   30.3740   50.7868 HW        27 WAT      0.417000
    193 O          12.0981   13.5379   11.3871 OW        28 WAT     -0.834000
    194 H1         12.5460   14.3793   11.3002 HW        28 WAT      0.417000
    195 H2         11.5810   13.4578   10.5856 HW        28 WAT      0.417000
    196 O          31.8846   16.7749   18.8344 OW        29 WAT     -0.834000
    197 H1         31.6494   16.8586   17.9103 HW        29 WAT      0.417000
    198 H2         31.0936   17.0339   19.3073 HW        29 WAT      0.417000
    199 O          22.3487   25.3819   44.4198 OW        30 WAT     -0.834000
    200 H1         21.4532   25.4015   44.0824 HW        30 WAT      0.417000
    201 H2         22.3217   25.9321   45.2027 HW        30 WAT      0.417000
    202 O          36.2734   24.5014   43.0600 OW        31 WAT     -0.834000
    203 H1         37.0252   24.9673   43.4260 HW        31 WAT      0.417000
    204 H2         36.3165   24.6782   42.1203 HW        31 WAT      0.417000
    205 O          34.2019   18.0656   27.6621 OW        32 WAT     -0.834000
    206 H1         33.9886   17.7676   26.7779 HW        32 WAT      0.417000
    207 H2         33.5309   18.7179   27.8634 HW        32 WAT      0.417000
    208 O          35.9531   17.8520   18.4421 OW        33 WAT     -0.834000
    209 H1         36.2932   18.5197   19.0377 HW        33 WAT      0.417000
    210 H2         36.7329   17.4041   18.1141 HW        33 WAT      0.417000
    211 O          14.2283   28.6022   42.0581 OW        34 WAT     -0.834000
    212 H1         14.0768   29.0338   41.2173 HW        34 WAT      0.417000
    213 H2         15.0573   28.1376   41.9429 HW        34 WAT      0.417000
    214 O           2.8713    6.3049   30.7417 OW        35 WAT     -0.834000
    215 H1          3.0638    7.1229   30.2835 HW        35 WAT      0.417000
    216 H2          1.9431    6.3691   30.9667 HW        35 WAT      0.417000
    217 O          21.6606    0.4420    9.9225 OW        36 WAT     -0.834000
    218 H1         20.7037    0.4456    9.9482 HW        36 WAT      0.417000
    219 H2         21.8893    1.2177    9.4103 HW        36 WAT      0.417000
    220 O          25.8953    7.8065    2.5334 OW        37 WAT     -0.834000
    221 H1         25.4783    7.4285    1.7590 HW        37 WAT      0.417000
    222 H2         26.4910    7.1237    2.8419 HW        37 WAT      0.417000
    223 O           6.9741   12.7154   44.4018 OW        38 WAT     -0.834000
    224 H1          6.1200   12.4854   44.0358 HW        38 WAT      0.417000
    225 H2          7.2377   11.9414   44.8994 HW        38 WAT      0.417000
    226 O          32.9432   17.7029   42.2519 OW        39 WAT     -0.834000
    227 H1         33.5180   18.0283   42.9448 HW        39 WAT      0.417000
    228 H2         32.3923   17.0505   42.6844 HW        39 WAT      0.417000
    229 O           2.5860   34.5849   40.4080 OW        40 WAT     -0.834000
    230 H1          2.3529   33.6567   40.3899 HW        40 WAT      0.417000
    231 H2          2.5226   34.8656   39.4951 HW        40 WAT      0.417000
    232 O          35.4005    6.1500   34.5043 OW        41 WAT     -0.834000
    233 H1         35.3491    5.3454   35.0204 HW        41 WAT      0.417000
    234 H2         34.4926    6.4433   34.4270 HW        41 WAT      0.417000
    235 O          25.2518    7.2289   40.9653 OW        42 WAT     -0.834000
    236 H1         24.4816    7.4845   40.4578 HW        42 WAT      0.417000
    237 H2         25.9600    7.7688   40.6142 HW        42 WAT      0.417000
    238 O          19.6176   30.3706   35.9017 OW        43 WAT     -0.834000
    239 H1         18.7626   30.3868   36.3319 HW        43 WAT      0.417000
    240 H2         19.4351   30.0507   35.0182 HW        43 WAT      0.417000
    241 O          31.8110    9.3561   50.6123 OW        44 WAT     -0.834000
    242 H1         30.8723    9.5184   50.5193 HW        44 WAT      0.417000
    243 H2         31.8722    8.6894   51.2965 HW        44 WAT      0.417000
    244 O           2.7999   20.7921   34.9847 OW        45 WAT     -0.834000
    245 H1          2.7173   20.3660   34.1316 HW        45 WAT      0.417000
    246 H2          2.5085   21.6911   34.8327 HW        45 WAT      0.417000
    247 O          24.8012   32.0034   31.3756 OW        46 WAT     -0.834000
    248 H1         25.0746   32.8147   30.9474 HW        46 WAT      0.417000
    249 H2         25.2777   31.9983   32.2057 HW        46 WAT      0.417000
    250 O          18.8027    6.1903    1.0133 OW        47 WAT     -0.834000
    251 H1         19.5167    5.8199    0.4944 HW        47 WAT      0.417000
    252 H2         18.9832    5.9030    1.9084 HW        47 WAT      0.417000
    253 O           5.1890    3.8582   50.8496 OW        48 WAT     -0.834000
    254 H1          5.5250    2.9677   50.9513 HW        48 WAT      0.417000
    255 H2          4.2812    3.8073   51.1489 HW        48 WAT      0.417000
    256 O          28.3706   29.7823    9.5790 OW        49 WAT     -0.834000
    257 H1         29.0960   29.6843   10.1958 HW        49 WAT      0.417000
    258 H2         27.6075   29.4506   10.0521 HW        49 WAT      0.417000
    259 O          33.4781   13.8955    8.0454 OW        50 WAT     -0.834000
    260 H1         33.2644   13.2889    7.3365 HW        50 WAT      0.417000
    261 H2         33.3947   13.3718    8.8422 HW        50 WAT      0.417000
    262 O           3.0337   19.7162   50.0337 OW        51 WAT     -0.834000
    263 H1          2.4649   20.3821   49.6474 HW        51 WAT      0.417000
    264 H2          3.2235   20.0440   50.9127 HW        51 WAT      0.417000
    265 O          20.1160    2.5059    7.0714 OW        52 WAT     -0.834000
    266 H1         19.7003    3.2131    6.5782 HW        52 WAT      0.417000
    267 H2         19.9876    1.7278    6.5288 HW        52 WAT      0.417000
    268 O           0.8555   36.3827   17.5793 OW        53 WAT     -0.834000
    269 H1          1.1609   35.5787   17.1592 HW        53 WAT      0.417000
    270 H2          1.5429   37.0237   17.3979 HW        53 WAT      0.417000
    271 O          29.8329   13.8595   33.6136 OW        54 WAT     -0.834000
    272 H1         29.9495   13.9102   34.5623 HW        54 WAT      0.417000
    273 H2         29.1054   13.2490   33.4940 HW        54 WAT      0.417000
    274 O          14.4088   17.8972   11.6128 OW        55 WAT     -0.834000
    275 H1         14.6208   18.2622   12.4719 HW        55 WAT      0.417000
    276 H2         15.0470   17.1950   11.4868 HW        55 WAT      0.417000
    277 O          17.5483   15.1403   46.9352 OW        56 WAT     -0.834000
    278 H1         17.9079   15.8784   46.4431 HW        56 WAT      0.417000
    279 H2         17.0797   14.6218   46.2811 HW        56 WAT      0.417000
    280 O           2.5143   35.4468   27.0269 OW        57 WAT     -0.834000
    281 H1          2.2694   34.5727   26.7232 HW        57 WAT      0.417000
    282 H2          2.5513   35.9756   26.2300 HW        57 WAT      0.417000
    283 O          17.7841    0.0963   42.5991 OW        58 WAT     -0.834000
    284 H1         17.1287    0.4724   43.1867 HW        58 WAT      0.417000
    285 H2         18.3054    0.8456   42.3110 HW        58 WAT      0.417000
    286 O           2.6572   -0.0046    5.2952 OW        59 WAT     -0.834000
    287 H1          3.0374    0.7744    5.7013 HW        59 WAT      0.417000
    288 H2          3.0122   -0.7357    5.8009 HW        59 WAT      0.417000
    289 O          21.7375   28.0739   17.2780 OW        60 WAT     -0.834000
    290 H1         21.6307   28.8439   16.7196 HW        60 WAT      0.417000
    291 H2         21.5809   27.3314   16.6946 HW        60 WAT      0.417000
    292 O          35.7894   26.1102   20.4408 OW        61 WAT     -0.834000
    293 H1         36.6533   25.7030   20.5059 HW        61 WAT      0.417000
    294 H2         35.9567   26.9645   20.0428 HW        61 WAT      0.417000
    295 O          13.0042   33.9059    2.8971 OW        62 WAT     -0.834000
    296 H1         13.8460   33.8311    2.4477 HW        62 WAT      0.417000
    297 H2         12.4951   34.5072    2.3535 HW        62 WAT      0.417000
    298 O           5.3853   11.0677   26.5912 OW        63 WAT     -0.834000
    299 H1          5.1406   11.8967   27.0024 HW        63 WAT      0.417000
    300 H2          6.3385   11.1104   26.5148 HW        63 WAT      0.417000
    301 O           4.9029   17.5950   27.4204 OW        64 WAT     -0.834000
    302 H1          5.6699   17.0224   27.4288 HW        64 WAT      0.417000
    303 H2          4.7931   17.8348   26.5003 HW        64 WAT      0.417000
    304 O          35.1274   15.1403    3.8639 OW        65 WAT     -0.834000
    305 H1         34.3605   14.5685    3.8987 HW        65 WAT      0.417000
    306 H2         35.2264   15.4629    4.7597 HW        65 WAT      0.417000
    307 O          24.1886   31.5265    2.2335 OW        66 WAT     -0.834000
    308 H1         24.4345   32.4513    2.2099 HW        66 WAT      0.417000
    309 H2         24.5461   31.1629    1.4235 HW        66 WAT      0.417000
    310 O          25.0980    1.2212   31.5117 OW        67 WAT     -0.834000
    311 H1         24.8006    0.5302   32.1035 HW        67 WAT      0.417000
    312 H2         24.9807    0.8533   30.6358 HW        67 WAT      0.417000
    313 O          12.8647   26.8975   22.6395 OW        68 WAT     -0.834000
    314 H1         13.8176   26.9443   22.5615 HW        68 WAT      0.417000
    315 H2         12.6858   25.9795   22.8435 HW        68 WAT      0.417000
    316 O           6.9947    8.0400   16.2484 OW        69 WAT     -0.834000
    317 H1          6.5956    8.0507   17.1183 HW        69 WAT      0.417000
    318 H2          7.9338    8.1224   16.4146 HW        69 WAT      0.417000
    319 O          26.5451    9.6009   35.2706 OW        70 WAT     -0.834000
    320 H1         25.7112    9.7880   34.8396 HW        70 WAT      0.417000
    321 H2         26.4877   10.0558   36.1109 HW        70 WAT      0.417000
    322 O          20.3868   21.5032   39.4455 OW        71 WAT     -0.834000
    323 H1         19.4883   21.7872   39.2774 HW        71 WAT      0.417000
    324 H2         20.6598   21.0782   38.6325 HW        71 WAT      0.417000
    325 O           3.4367    4.7130   45.4547 OW        72 WAT     -0.834000
    326 H1          3.5114    4.2679   44.6106 HW        72 WAT      0.417000
    327 H2          4.3124    5.0626   45.6194 HW        72 WAT      0.417000
    328 O           5.5548   36.4074   26.3113 OW        73 WAT     -0.834000
    329 H1          5.3483   37.3419   26.2919 HW        73 WAT      0.417000
    330 H2          5.8122   36.2377   27.2175 HW        73 WAT      0.417000
    331 O           9.5879   21.9896   34.1790 OW        74 WAT     -0.834000
    332 H1          9.7558   22.3245   35.0598 HW        74 WAT      0.417000
    333 H2          9.6729   21.0399   34.2636 HW        74 WAT      0.417000
    334 O          13.3225   23.5879   22.8402 OW        75 WAT     -0.834000
    335 H1         13.2480   24.2450   23.5322 HW        75 WAT      0.417000
    336 H2         14.2539   23.5766   22.6199 HW        75 WAT      0.417000
    337 O           7.4424   11.8073   19.3707 OW        76 WAT     -0.834000
    338 H1          7.7670   11.4128   18.5612 HW        76 WAT      0.417000
    339 H2          6.8445   12.4954   19.0789 HW        76 WAT      0.417000
    340 O           1.2383    3.3349   17.9955 OW        77 WAT     -0.834000
    341 H1          0.8518    2.8304   17.2796 HW        77 WAT      0.417000
    342 H2          2.1628    3.4144   17.7606 HW        77 WAT      0.417000
    343 O          10.7238   33.5640   19.9082 OW        78 WAT     -0.834000
    344 H1         10.1860   34.0177   19.2593 HW        78 WAT      0.417000
    345 H2         11.6246   33.7745   19.6621 HW        78 WAT      0.417000
    346 O          21.7776   36.5081   29.6470 OW        79 WAT     -0.834000
    347 H1         21.2479   35.7230   29.7862 HW        79 WAT      0.417000
    348 H2         21.6274   37.0400   30.4285 HW        79 WAT      0.417000
    349 O           3.3797   17.2300   20.2958 OW        80 WAT     -0.834000
    350 H1          4.2269   17.5059   19.9459 HW        80 WAT      0.417000
    351 H2          3.4472   16.2775   20.3634 HW        80 WAT      0.417000
    352 O          13.2343    3.6731   30.3014 OW        81 WAT     -0.834000
    353 H1         12.7221    3.3327   29.5679 HW        81 WAT      0.417000
    354 H2         12.5973    4.1402   30.8420 HW        81 WAT      0.417000
    355 O          29.6222   25.1155   32.5996 OW        82 WAT     -0.834000
    356 H1         28.9868   25.6127   32.0845 HW        82 WAT      0.417000
    357 H2         29.1814   24.2872   32.7888 HW        82 WAT      0.417000
    358 O          14.0438    1.4021   41.1548 OW        83 WAT     -0.834000
    359 H1         14.2819    2.3288   41.1275 HW        83 WAT      0.417000
    360 H2         13.7839    1.2483   42.0631 HW        83 WAT      0.417000
    361 O           4.6787   22.9466   19.4312 OW        84 WAT     -0.834000
    362 H1          4.1031   23.0621   18.6751 HW        84 WAT      0.417000
    363 H2          5.5631   22.9823   19.0666 HW        84 WAT      0.417000
    364 O          23.1921   29.6469   20.2732 OW        85 WAT     -0.834000
    365 H1         23.6785   30.4147   19.9730 HW        85 WAT      0.417000
    366 H2         22.9813   29.1684   19.4715 HW        85 WAT      0.417000
    367 O          19.4824   24.5892   47.7974 OW        86 WAT     -0.834000
    368 H1         20.1850   25.2338   47.8811 HW        86 WAT      0.417000
    369 H2         18.9789   24.6772   48.6068 HW        86 WAT      0.417000
    370 O          19.5588   33.8825   33.7712 OW        87 WAT     -0.834000
    371 H1         19.8091   33.8966   32.8474 HW        87 WAT      0.417000
    372 H2         18.6143   33.7275   33.7611 HW        87 WAT      0.417000
    373 O           3.5449   25.6583    2.9670 OW        88 WAT     -0.834000
    374 H1          3.5115   26.1271    2.1332 HW        88 WAT      0.417000
    375 H2          2.6941   25.2245    3.0322 HW        88 WAT      0.417000
    376 O           7.3758    3.5607   26.9513 OW        89 WAT     -0.834000
    377 H1          7.3501    2.9057   26.2538 HW        89 WAT      0.417000
    378 H2          8.0203    4.2027   26.6535 HW        89 WAT      0.417000
    379 O           4.5081   36.1071    2.5754 OW        90 WAT     -0.834000
    380 H1          3.6442   36.4901    2.7283 HW        90 WAT      0.417000
    381 H2          5.0985   36.8590    2.5280 HW        90 WAT      0.417000
    382 O           3.2857   24.7077   17.5600 OW        91 WAT     -0.834000
    383 H1          2.6034   25.1887   18.0283 HW        91 WAT      0.417000
    384 H2          3.9883   25.3463   17.4382 HW        91 WAT      0.417000
    385 O           3.7479   22.7594   29.5805 OW        92 WAT     -0.834000
    386 H1          4.0482   22.0030   30.0845 HW        92 WAT      0.417000
    387 H2          2.8707   22.9395   29.9187 HW        92 WAT      0.417000
    388 O           0.7917    7.3853   28.0456 OW        93 WAT     -0.834000
    389 H1          0.1859    7.6994   27.3744 HW        93 WAT      0.417000
    390 H2          1.5935    7.1769   27.5660 HW        93 WAT      0.417000
    391 O          20.3859   10.2400   30.1903 OW        94 WAT     -0.834000
    392 H1         20.3858   10.9474   29.5454 HW        94 WAT      0.417000
    393 H2         20.6608    9.4668   29.6976 HW        94 WAT      0.417000
    394 O          25.3019   28.0409   21.6370 OW        95 WAT     -0.834000
    395 H1         24.5089   28.1582   21.1138 HW        95 WAT      0.417000
    396 H2         24.9828   27.9138   22.5304 HW        95 WAT      0.417000
    397 O          34.0259   15.4779   15.0389 OW        96 WAT     -0.834000
    398 H1         34.4011   15.3668   14.1653 HW        96 WAT      0.417000
    399 H2         33.2804   14.8778   15.0575 HW        96 WAT      0.417000
    400 O          21.6132   16.0849    5.2265 OW        97 WAT     -0.834000
    401 H1         22.3693   15.6485    4.8341 HW        97 WAT      0.417000
    402 H2         21.8309   17.0164    5.1944 HW        97 WAT      0.417000
    403 O          14.4385    1.4092    9.4165 OW        98 WAT     -0.834000
    404 H1         14.4197    0.8464   10.1905 HW        98 WAT      0.417000
    405 H2         13.5959    1.2565    8.9888 HW        98 WAT      0.417000
    406 O          11.6935   12.5491   20.5470 OW        99 WAT     -0.834000
    407 H1         12.5705   12.4959   20.1671 HW        99 WAT      0.417000
    408 H2         11.1590   12.9487   19.8608 HW        99 WAT      0.417000
    409 O          19.4641   11.7266    5.5377 OW       100 WAT     -0.834000
    410 H1         19.4330   12.4862    6.1193 HW       100 WAT      0.417000
    411 H2         19.2060   10.9900    6.0918 HW       100 WAT      0.417000
    412 O           8.8824   28.5436    6.3651 OW       101 WAT     -0.834000
    413 H1          9.2487   28.7081    5.4963 HW       101 WAT      0.417000
    414 H2          9.4555   27.8774    6.7445 HW       101 WAT      0.417000
    415 O          33.2051   36.0539   48.8782 OW       102 WAT     -0.834000
    416 H1         33.1217   36.8446   48.3452 HW       102 WAT      0.417000
    417 H2         32.3038   35.8142   49.0938 HW       102 WAT      0.417000
    418 O          33.6425    2.6051   40.3726 OW       103 WAT     -0.834000
    419 H1         33.2219    3.4207   40.1006 HW       103 WAT      0.417000
    420 H2         34.5239    2.6552   40.0027 HW       103 WAT      0.417000
    421 O           4.2559   22.1979   40.6226 OW       104 WAT     -0.834000
    422 H1          3.4040   21.8786   40.3251 HW       104 WAT      0.417000
    423 H2          4.8692   21.9095   39.9466 HW       104 WAT      0.417000
    424 O          15.4432   23.9612    0.6685 OW       105 WAT     -0.834000
    425 H1         14.7094   23.4030    0.9259 HW       105 WAT      0.417000
    426 H2         16.2182   23.4164    0.8060 HW       105 WAT      0.417000
    427 O          29.0800    6.1160   48.0714 OW       106 WAT     -0.834000
    428 H1         29.9789    5.9366   47.7955 HW       106 WAT      0.417000
    429 H2         28.9668    5.5995   48.8693 HW       106 WAT      0.417000
    430 O           4.6619   30.7140   16.5151 OW       107 WAT     -0.834000
    431 H1          3.8248   30.3078   16.2902 HW       107 WAT      0.417000
    432 H2          4.4219   31.5211   16.9702 HW       107 WAT      0.417000
    433 O          26.8813    6.5012   30.1995 OW       108 WAT     -0.834000
    434 H1         26.5237    6.3270   31.0702 HW       108 WAT      0.417000
    435 H2         27.7093    6.9514   30.3663 HW       108 WAT      0.417000
    436 O          25.0870   32.9853   39.2199 OW       109 WAT     -0.834000
    437 H1         24.5661   32.3141   38.7790 HW       109 WAT      0.417000
    438 H2         24.5264   33.2943   39.9316 HW       109 WAT      0.417000
    439 O           1.4724    2.6368   42.5885 OW       110 WAT     -0.834000
    440 H1          0.6817    3.0877   42.8849 HW       110 WAT      0.417000
    441 H2          1.6262    1.9629   43.2507 HW       110 WAT      0.417000
    442 O          12.5751   30.1728   24.8730 OW       111 WAT     -0.834000
    443 H1         13.0167   30.7866   25.4599 HW       111 WAT      0.417000
    444 H2         12.4488   29.3848   25.4015 HW       111 WAT      0.417000
    445 O          16.7606    1.0669   18.8455 OW       112 WAT     -0.834000
    446 H1         15.9790    1.3715   18.3844 HW       112 WAT      0.417000
    447 H2         16.8526    0.1513   18.5818 HW       112 WAT      0.417000
    448 O          23.1570   18.5497    4.7961 OW       113 WAT     -0.834000
    449 H1         22.8565   19.4188    4.5303 HW       113 WAT      0.417000
    450 H2         23.6150   18.2092    4.0277 HW       113 WAT      0.417000
    451 O           5.5980    5.3780   31.8505 OW       114 WAT     -0.834000
    452 H1          5.6250    5.3496   32.8069 HW       114 WAT      0.417000
    453 H2          4.9311    6.0345   31.6491 HW       114 WAT      0.417000
    454 O          14.1244   28.2154   51.5223 OW       115 WAT     -0.834000
    455 H1         13.2601   28.2343   51.9334 HW       115 WAT      0.417000
    456 H2         14.0391   28.7869   50.7592 HW       115 WAT      0.417000
    457 O          28.5279   26.5317   48.4856 OW       116 WAT     -0.834000
    458 H1         28.5956   26.8505   49.3857 HW       116 WAT      0.417000
    459 H2         27.6478   26.1597   48.4288 HW       116 WAT      0.417000
    460 O          19.8723    4.5052   33.2908 OW       117 WAT     -0.834000
    461 H1         19.4880    3.9916   32.5804 HW       117 WAT      0.417000
    462 H2         19.9980    3.8756   34.0008 HW       117 WAT      0.417000
    463 O          26.2169   11.8884   40.5077 OW       118 WAT     -0.834000
    464 H1         26.2749   12.3913   39.6954 HW       118 WAT      0.417000
    465 H2         25.3349   12.0638   40.8356 HW       118 WAT      0.417000
    466 O          24.4550   23.7372    4.8058 OW       119 WAT     -0.834000
    467 H1         25.3540   23.8841    5.1000 HW       119 WAT      0.417000
    468 H2         24.4364   24.0803    3.9124 HW       119 WAT      0.417000
    469 O           3.4445   12.9588    5.3398 OW       120 WAT     -0.834000
    470 H1          4.2748   13.1815    4.9188 HW       120 WAT      0.417000
    471 H2          3.3353   13.6231    6.0203 HW       120 WAT      0.417000
    472 O          29.6086   19.7728   13.6660 OW       121 WAT     -0.834000
    473 H1         29.4102   20.6694   13.3957 HW       121 WAT      0.417000
    474 H2         28.7519   19.3576   13.7657 HW       121 WAT      0.417000
    475 O          22.2263    9.4684   17.7664 OW       122 WAT     -0.834000
    476 H1         21.8496   10.2874   17.4447 HW       122 WAT      0.417000
    477 H2         23.1049    9.4437   17.3875 HW       122 WAT      0.417000
    478 O          35.6900   20.2454    1.8742 OW       123 WAT     -0.834000
    479 H1         34.7952   19.9098    1.8190 HW       123 WAT      0.417000
    480 H2         36.0157   19.9220    2.7142 HW       123 WAT      0.417000
    481 O          11.5380   25.1358   44.5710 OW       124 WAT     -0.834000
    482 H1         12.0372   24.8111   45.3205 HW       124 WAT      0.417000
    483 H2         12.0537   25.8713   44.2404 HW       124 WAT      0.417000
    484 O          33.3556   28.1213   51.1819 OW       125 WAT     -0.834000
    485 H1         33.8727   27.9842   50.3881 HW       125 WAT      0.417000
    486 H2         32.4565   28.2183   50.8683 HW       125 WAT      0.417000
    487 O           8.6347   20.5768   16.5279 OW       126 WAT     -0.834000
    488 H1          9.5166   20.6151   16.8983 HW       126 WAT      0.417000
    489 H2          8.4304   19.6423   16.4920 HW       126 WAT      0.417000
    490 O          22.3679   35.5641    1.0119 OW       127 WAT     -0.834000
    491 H1         22.0266   34.9454    0.3662 HW       127 WAT      0.417000
    492 H2         23.2329   35.2220    1.2375 HW       127 WAT      0.417000
    493 O           3.6382    2.0544   19.9928 OW       128 WAT     -0.834000
    494 H1          4.5048    2.2641   20.3412 HW       128 WAT      0.417000
    495 H2          3.7581    2.0433   19.0432 HW       128 WAT      0.417000
    496 O          26.8829    8.4394   23.1828 OW       129 WAT     -0.834000
    497 H1         27.5091    8.0354   23.7836 HW       129 WAT      0.417000
    498 H2         27.3962    8.6377   22.3996 HW       129 WAT      0.417000
    499 O          32.3448   23.8938   25.0126 OW       130 WAT     -0.834000
    500 H1         32.9927   24.4625   24.5966 HW       130 WAT      0.417000
    501 H2         32.7237   23.0167   24.9545 HW       130 WAT      0.417000
    502 O           7.9851   34.4579    8.6036 OW       131 WAT     -0.834000
    503 H1          8.7088   33.8407    8.7106 HW       131 WAT      0.417000
    504 H2          7.2869   33.9410    8.2018 HW       131 WAT      0.417000
    505 O           2.9770   26.6076    5.4987 OW       132 WAT     -0.834000
    506 H1          3.1498   26.1461    4.6781 HW       132 WAT      0.417000
    507 H2          2.4233   27.3464    5.2460 HW       132 WAT      0.417000
    508 O          10.4410    2.3314   10.6118 OW       133 WAT     -0.834000
    509 H1          9.8935    1.6250   10.9546 HW       133 WAT      0.417000
    510 H2         10.8226    1.9717    9.8111 HW       133 WAT      0.417000
    511 O          27.6864   21.3074   15.9695 OW       134 WAT     -0.834000
    512 H1         26.8036   21.1760   16.3154 HW       134 WAT      0.417000
    513 H2         27.5505   21.5656   15.0579 HW       134 WAT      0.417000
    514 O          25.9909   22.7962   22.1880 OW       135 WAT     -0.834000
    515 H1         25.9047   23.7249   21.9730 HW       135 WAT      0.417000
    516 H2         25.1266   22.5444   22.5132 HW       135 WAT      0.417000
    517 O           3.3256   25.2286   27.6953 OW       136 WAT     -0.834000
    518 H1          3.0466   24.3310   27.5148 HW       136 WAT      0.417000
    519 H2          2.5491   25.7605   27.5210 HW       136 WAT      0.417000
    520 O           1.0270   30.9031    4.3860 OW       137 WAT     -0.834000
    521 H1          1.7103   31.5459    4.5766 HW       137 WAT      0.417000
    522 H2          1.2968   30.5051    3.5583 HW       137 WAT      0.417000
    523 O          34.2697   34.1761   17.4846 OW       138 WAT     -0.834000
    524 H1         33.7403   33.9089   18.2359 HW       138 WAT      0.417000
    525 H2         33.7376   33.9463   16.7228 HW       138 WAT      0.417000
    526 O           4.7158   28.1146   30.4561 OW       139 WAT     -0.834000
    527 H1          4.6920   27.1891   30.6995 HW       139 WAT      0.417000
    528 H2          4.6994   28.5823   31.2911 HW       139 WAT      0.417000
    529 O          22.4944   33.6317   32.2965 OW       140 WAT     -0.834000
    530 H1         22.2900   33.4946   33.2215 HW       140 WAT      0.417000
    531 H2         22.9511   32.8333   32.0313 HW       140 WAT      0.417000
    532 O          12.5961   23.1220   19.3813 OW       141 WAT     -0.834000
    533 H1         13.0792   22.6864   18.6791 HW       141 WAT      0.417000
    534 H2         13.0142   23.9791   19.4638 HW       141 WAT      0.417000
    535 O           6.2003   21.8357   28.7404 OW       142 WAT     -0.834000
    536 H1          6.2757   21.3518   29.5629 HW       142 WAT      0.417000
    537 H2          5.3351   22.2433   28.7808 HW       142 WAT      0.417000
    538 O           1.7841   21.9695   44.1559 OW       143 WAT     -0.834000
    539 H1          1.8934   22.8187   43.7281 HW       143 WAT      0.417000
    540 H2          2.0043   22.1331   45.0729 HW       143 WAT      0.417000
    541 O          17.3542    0.4232   30.1908 OW       144 WAT     -0.834000
    542 H1         17.2621    1.1631   30.7910 HW       144 WAT      0.417000
    543 H2         16.6232    0.5178   29.5801 HW       144 WAT      0.417000
    544 O          21.1103    1.6018    1.7305 OW       145 WAT     -0.834000
    545 H1         22.0122    1.7407    1.4414 HW       145 WAT      0.417000
    546 H2         21.0865    1.9561    2.6194 HW       145 WAT      0.417000
    547 O           8.3605    4.5776    7.3918 OW       146 WAT     -0.834000
    548 H1          9.0830    4.8351    7.9643 HW       146 WAT      0.417000
    549 H2          8.7573    4.5032    6.5239 HW       146 WAT      0.417000
    550 O          17.1422   30.7523   31.6828 OW       147 WAT     -0.834000
    551 H1         16.7747   31.5710   31.3499 HW       147 WAT      0.417000
    552 H2         16.6880   30.0684   31.1906 HW       147 WAT      0.417000
    553 O           6.4893   17.4957   30.6421 OW       148 WAT     -0.834000
    554 H1          7.0070   18.2349   30.3230 HW       148 WAT      0.417000
    555 H2          6.9447   16.7227   30.3085 HW       148 WAT      0.417000
    556 O          19.3707   25.3961   23.3722 OW       149 WAT     -0.834000
    557 H1         20.0116   24.7350   23.6336 HW       149 WAT      0.417000
    558 H2         18.6967   24.9040   22.9033 HW       149 WAT      0.417000
    559 O           3.9668   12.7373   47.3182 OW       150 WAT     -0.834000
    560 H1          3.1398   12.2593   47.3801 HW       150 WAT      0.417000
    561 H2          3.7098   13.6334   47.1011 HW       150 WAT      0.417000
    562 O          15.7304   15.7042   31.3757 OW       151 WAT     -0.834000
    563 H1         15.0856   15.0676   31.0672 HW       151 WAT      0.417000
    564 H2         16.3717   15.7582   30.6672 HW       151 WAT      0.417000
    565 O           2.9469   32.3107   36.0707 OW       152 WAT     -0.834000
    566 H1          3.1770   32.4095   35.1468 HW       152 WAT      0.417000
    567 H2          3.1231   31.3899   36.2642 HW       152 WAT      0.417000
    568 O          31.2540    3.7865   48.3732 OW       153 WAT     -0.834000
    569 H1         31.6054    4.5458   48.8383 HW       153 WAT      0.417000
    570 H2         30.4882    3.5256   48.8846 HW       153 WAT      0.417000
    571 O          21.0636   26.3290   49.0672 OW       154 WAT     -0.834000
    572 H1         21.5362   25.5691   49.4070 HW       154 WAT      0.417000
    573 H2         20.5349   26.6320   49.8054 HW       154 WAT      0.417000
    574 O           6.3891    6.0705    0.4780 OW       155 WAT     -0.834000
    575 H1          5.9116    5.3177    0.1295 HW       155 WAT      0.417000
    576 H2          6.8858    5.7181    1.2164 HW       155 WAT      0.417000
    577 O          32.8798    7.4218   41.9269 OW       156 WAT     -0.834000
    578 H1         32.8174    8.1674   42.5239 HW       156 WAT      0.417000
    579 H2         33.7415    7.0447   42.1039 HW       156 WAT      0.417000
    580 O           6.4993    7.3781   24.5715 OW       157 WAT     -0.834000
    581 H1          7.3402    7.1752   24.1616 HW       157 WAT      0.417000
    582 H2          6.7161    7.5589   25.4861 HW       157 WAT      0.417000
    583 O          32.3066    5.1515   40.6361 OW       158 WAT     -0.834000
    584 H1         32.6999    5.6110   39.8942 HW       158 WAT      0.417000
    585 H2         32.5327    5.6869   41.3966 HW       158 WAT      0.417000
    586 O          35.2480   33.2755    7.4594 OW       159 WAT     -0.834000
    587 H1         34.4710   33.5237    7.9603 HW       159 WAT      0.417000
    588 H2         35.9827   33.5972    7.9819 HW       159 WAT      0.417000
    589 O          26.0260   21.1829    3.9639 OW       160 WAT     -0.834000
    590 H1         26.0507   20.2310    4.0610 HW       160 WAT      0.417000
    591 H2         25.3813   21.4729    4.6093 HW       160 WAT      0.417000
    592 O           9.0001   29.3643   24.8448 OW       161 WAT     -0.834000
    593 H1          9.1947   28.9366   24.0109 HW       161 WAT      0.417000
    594 H2          8.1666   28.9831   25.1207 HW       161 WAT      0.417000
    595 O          25.5498    2.1573   49.5578 OW       162 WAT     -0.834000
    596 H1         25.3078    2.9903   49.1531 HW       162 WAT      0.417000
    597 H2         25.7471    2.3813   50.4673 HW       162 WAT      0.417000
    598 O          20.4268   33.0706   20.8277 OW       163 WAT     -0.834000
    599 H1         20.0286   33.8969   20.5540 HW       163 WAT      0.417000
    600 H2         20.9127   33.2905   21.6226 HW       163 WAT      0.417000
    601 O           1.1101   13.1028   34.7064 OW       164 WAT     -0.834000
    602 H1          1.0161   12.1507   34.6751 HW       164 WAT      0.417000
    603 H2          1.2971   13.2948   35.6253 HW       164 WAT      0.417000
    604 O          16.9243    8.5931   12.1853 OW       165 WAT     -0.834000
    605 H1         16.5886    7.7021   12.0864 HW       165 WAT      0.417000
    606 H2         16.1483    9.1222   12.3701 HW       165 WAT      0.417000
    607 O           9.8421   15.0225   49.6509 OW       166 WAT     -0.834000
    608 H1          9.6397   15.8744   50.0377 HW       166 WAT      0.417000
    609 H2          9.0184   14.5371   49.6962 HW       166 WAT      0.417000
    610 O          35.9861    9.0159    0.3365 OW       167 WAT     -0.834000
    611 H1         36.4957    8.3879    0.8485 HW       167 WAT      0.417000
    612 H2         36.2695    8.8744   -0.5668 HW       167 WAT      0.417000
    613 O          28.2346   24.4716   11.6404 OW       168 WAT     -0.834000
    614 H1         28.4588   25.0079   10.8799 HW       168 WAT      0.417000
    615 H2         27.2794   24.4137   11.6193 HW       168 WAT      0.417000
    616 O          24.2660   34.6483    7.7948 OW       169 WAT     -0.834000
    617 H1         23.8178   34.1286    7.1275 HW       169 WAT      0.417000
    618 H2         24.5914   35.4148    7.3227 HW       169 WAT      0.417000
    619 O          35.4077    9.9388   13.4516 OW       170 WAT     -0.834000
    620 H1         35.1825   10.1311   14.3618 HW       170 WAT      0.417000
    621 H2         35.5837    8.9979   13.4421 HW       170 WAT      0.417000
    622 O           9.0875   33.0939   44.7889 OW       171 WAT     -0.834000
    623 H1          8.2883   32.9481   44.2827 HW       171 WAT      0.417000
    624 H2          9.5840   32.2813   44.6919 HW       171 WAT      0.417000
    625 O           7.4653    4.9070   16.1238 OW       172 WAT     -0.834000
    626 H1          7.4873    5.8640   16.1276 HW       172 WAT      0.417000
    627 H2          7.1493    4.6781   15.2498 HW       172 WAT      0.417000
    628 O           8.9018   22.4167   22.1019 OW       173 WAT     -0.834000
    629 H1          9.2142   22.5791   21.2118 HW       173 WAT      0.417000
    630 H2          9.6656   22.5758   22.6565 HW       173 WAT      0.417000
    631 O          23.3928    7.9234   26.7138 OW       174 WAT     -0.834000
    632 H1         22.6189    7.3750   26.5853 HW       174 WAT      0.417000
    633 H2         23.8836    7.4858   27.4094 HW       174 WAT      0.417000
    634 O           0.7767   11.0897   11.9859 OW       175 WAT     -0.834000
    635 H1          0.0505   10.7660   12.5190 HW       175 WAT      0.417000
    636 H2          0.5465   10.8405   11.0909 HW       175 WAT      0.417000
    637 O          17.8671   17.7904   48.6787 OW       176 WAT     -0.834000
    638 H1         17.6435   18.5879   49.1586 HW       176 WAT      0.417000
    639 H2         18.4440   18.0881   47.9753 HW       176 WAT      0.417000
    640 O          10.3039    4.3323   22.3576 OW       177 WAT     -0.834000
    641 H1         10.4324    3.8470   21.5426 HW       177 WAT      0.417000
    642 H2          9.4256    4.0858   22.6473 HW       177 WAT      0.417000
    643 O           8.6302   27.8843   18.9667 OW       178 WAT     -0.834000
    644 H1          9.2787   28.5466   19.2055 HW       178 WAT      0.417000
    645 H2          7.8535   28.1147   19.4765 HW       178 WAT      0.417000
    646 O          18.4184    5.0874   37.5787 OW       179 WAT     -0.834000
    647 H1         17.9997    4.9740   36.7254 HW       179 WAT      0.417000
    648 H2         19.1181    5.7209   37.4199 HW       179 WAT      0.417000
    649 O          28.5510   26.1559   40.1908 OW       180 WAT     -0.834000
    650 H1         28.3276   25.6030   39.4421 HW       180 WAT      0.417000
    651 H2         28.5951   25.5506   40.9310 HW       180 WAT      0.417000
    652 O           6.8642   16.1915   49.5298 OW       181 WAT     -0.834000
    653 H1          6.0088   16.5112   49.8168 HW       181 WAT      0.417000
    654 H2          6.7228   15.2634   49.3433 HW       181 WAT      0.417000
    655 O          19.2017    2.1547   -0.1093 OW       182 WAT     -0.834000
    656 H1         18.9551    1.2572    0.1142 HW       182 WAT      0.417000
    657 H2         19.9121    2.3658    0.4965 HW       182 WAT      0.417000
    658 O          32.1491    2.2179   12.3857 OW       183 WAT     -0.834000
    659 H1         31.9675    2.8857   13.0470 HW       183 WAT      0.417000
    660 H2         31.2855    1.8968   12.1262 HW       183 WAT      0.417000
    661 O          29.8860   23.8867   41.8778 OW       184 WAT     -0.834000
    662 H1         29.6820   23.4918   41.0301 HW       184 WAT      0.417000
    663 H2         30.7238   24.3288   41.7407 HW       184 WAT      0.417000
    664 O          16.0289    0.9913   44.2181 OW       185 WAT     -0.834000
    665 H1         15.8877    0.4109   44.9660 HW       185 WAT      0.417000
    666 H2         15.7733    1.8575   44.5354 HW       185 WAT      0.417000
    667 O           3.6627    7.4518   42.6466 OW       186 WAT     -0.834000
    668 H1          4.4103    8.0493   42.6283 HW       186 WAT      0.417000
    669 H2          3.6644    7.0396   41.7827 HW       186 WAT      0.417000
    670 O          32.8190   35.0533    3.9621 OW       187 WAT     -0.834000
    671 H1         32.0006   34.6827    4.2923 HW       187 WAT      0.417000
    672 H2         32.6448   35.9916    3.8892 HW       187 WAT      0.417000
    673 O           9.4656   18.7688   47.2092 OW       188 WAT     -0.834000
    674 H1          9.6138   19.0863   46.3184 HW       188 WAT      0.417000
    675 H2         10.3009   18.9083   47.6553 HW       188 WAT      0.417000
    676 O          31.3588   17.7841   13.3428 OW       189 WAT     -0.834000
    677 H1         30.8878   17.2584   12.6962 HW       189 WAT      0.417000
    678 H2         30.7840   18.5313   13.5086 HW       189 WAT      0.417000
    679 O           0.6476   31.8287    0.8284 OW       190 WAT     -0.834000
    680 H1          0.7392   32.6306    1.3428 HW       190 WAT      0.417000
    681 H2          0.9495   32.0701   -0.0473 HW       190 WAT      0.417000
    682 O           8.4335    6.9516   41.7873 OW       191 WAT     -0.834000
    683 H1          8.3133    6.6346   40.8921 HW       191 WAT      0.417000
    684 H2          8.5782    6.1593   42.3046 HW       191 WAT      0.417000
    685 O          33.2687    0.1255   13.8240 OW       192 WAT     -0.834000
    686 H1         33.2187   -0.6936   13.3313 HW       192 WAT      0.417000
    687 H2         32.7457    0.7441   13.3141 HW       192 WAT      0.417000
    688 O           9.4141   25.0627   13.2488 OW       193 WAT     -0.834000
    689 H1          9.3623   25.8790   13.7461 HW       193 WAT      0.417000
    690 H2          8.6535   24.5581   13.5370 HW       193 WAT      0.417000
    691 O          17.1307   33.2739   37.9434 OW       194 WAT     -0.834000
    692 H1         16.2784   33.6532   37.7292 HW       194 WAT      0.417000
    693 H2         17.4555   33.8083   38.6680 HW       194 WAT      0.417000
    694 O          22.4666   28.6221   44.6786 OW       195 WAT     -0.834000
    695 H1         21.7716   29.2666   44.5448 HW       195 WAT      0.417000
    696 H2         22.2553   28.2127   45.5176 HW       195 WAT      0.417000
    697 O           2.8636    8.5583   51.7679 OW       196 WAT     -0.834000
    698 H1          2.3623    7.9054   51.2794 HW       196 WAT      0.417000
    699 H2          2.8842    9.3236   51.1933 HW       196 WAT      0.417000
    700 O          25.1343    3.6864   33.7042 OW       197 WAT     -0.834000
    701 H1         24.3472    3.4112   34.1744 HW       197 WAT      0.417000
    702 H2         25.1542    4.6379   33.8071 HW       197 WAT      0.417000
    703 O          24.3929   27.1530   18.2414 OW       198 WAT     -0.834000
    704 H1         24.6191   28.0679   18.0740 HW       198 WAT      0.417000
    705 H2         23.4639   27.0915   18.0190 HW       198 WAT      0.417000
    706 O          20.0483   29.9463   44.6477 OW       199 WAT     -0.834000
    707 H1         19.2686   30.3914   44.9799 HW       199 WAT      0.417000
    708 H2         20.3981   30.5401   43.9834 HW       199 WAT      0.417000
    709 O          35.7197   15.5196    1.0999 OW       200 WAT     -0.834000
    710 H1         35.5404   15.2698    2.0064 HW       200 WAT      0.417000
    711 H2         36.5655   15.9662    1.1374 HW       200 WAT      0.417000
    712 O          17.1461    9.4093   29.4839 OW       201 WAT     -0.834000
    713 H1         17.8786    8.7986   29.4015 HW       201 WAT      0.417000
    714 H2         17.4744   10.2284   29.1131 HW       201 WAT      0.417000
    715 O          16.5769   18.6051   29.4134 OW       202 WAT     -0.834000
    716 H1         17.3110   18.9010   28.8751 HW       202 WAT      0.417000
    717 H2         16.9451   17.9109   29.9599 HW       202 WAT      0.417000
    718 O          10.1046    6.3993    8.5955 OW       203 WAT     -0.834000
    719 H1          9.2571    6.6676    8.9507 HW       203 WAT      0.417000
    720 H2         10.4730    5.8227    9.2648 HW       203 WAT      0.417000
    721 O           3.0913   21.2180   16.2780 OW       204 WAT     -0.834000
    722 H1          2.6223   20.4364   15.9858 HW       204 WAT      0.417000
    723 H2          2.4753   21.9358   16.1310 HW       204 WAT      0.417000
    724 O          11.7300   14.9585   16.4840 OW       205 WAT     -0.834000
    725 H1         11.3238   14.1046   16.3351 HW       205 WAT      0.417000
    726 H2         11.5768   15.4415   15.6719 HW       205 WAT      0.417000
    727 O           7.2587    7.0850   47.6079 OW       206 WAT     -0.834000
    728 H1          8.0132    6.6712   48.0272 HW       206 WAT      0.417000
    729 H2          6.5089    6.8023   48.1315 HW       206 WAT      0.417000
    730 O           3.1583   11.6965   19.2574 OW       207 WAT     -0.834000
    731 H1          2.4149   11.8039   19.8507 HW       207 WAT      0.417000
    732 H2          3.9016   11.5204   19.8342 HW       207 WAT      0.417000
    733 O          36.2764   27.1590    0.9519 OW       208 WAT     -0.834000
    734 H1         35.3808   27.2833    1.2659 HW       208 WAT      0.417000
    735 H2         36.2758   26.2825    0.5670 HW       208 WAT      0.417000
    736 O          24.9456   21.4899   28.8448 OW       209 WAT     -0.834000
    737 H1         24.1093   21.0497   28.6932 HW       209 WAT      0.417000
    738 H2         25.3404   21.0099   29.5729 HW       209 WAT      0.417000
    739 O           4.3747    1.8550   32.6106 OW       210 WAT     -0.834000
    740 H1          3.9497    1.9590   33.4620 HW       210 WAT      0.417000
    741 H2          4.0932    0.9922   32.3062 HW       210 WAT      0.417000
    742 O          30.2496   17.2555   45.1868 OW       211 WAT     -0.834000
    743 H1         29.7398   18.0442   45.0017 HW       211 WAT      0.417000
    744 H2         31.1258   17.5800   45.3948 HW       211 WAT      0.417000
    745 O          36.5184   24.8680   36.0282 OW       212 WAT     -0.834000
    746 H1         36.1432   25.4778   35.3928 HW       212 WAT      0.417000
    747 H2         37.1224   25.4018   36.5445 HW       212 WAT      0.417000
    748 O          31.2868   27.2844   10.4761 OW       213 WAT     -0.834000
    749 H1         30.3924   26.9473   10.5260 HW       213 WAT      0.417000
    750 H2         31.7150   26.9449   11.2620 HW       213 WAT      0.417000
    751 O          35.8993    8.3843    7.8654 OW       214 WAT     -0.834000
    752 H1         36.4555    8.7219    7.1634 HW       214 WAT      0.417000
    753 H2         35.6673    9.1574    8.3799 HW       214 WAT      0.417000
    754 O          35.5295    6.0828   37.3999 OW       215 WAT     -0.834000
    755 H1         35.9631    6.5938   38.0834 HW       215 WAT      0.417000
    756 H2         35.7508    5.1741   37.6035 HW       215 WAT      0.417000
    757 O          32.7508    6.3625   38.2596 OW       216 WAT     -0.834000
    758 H1         32.2179    5.8899   37.6202 HW       216 WAT      0.417000
    759 H2         33.6432    6.3026   37.9185 HW       216 WAT      0.417000
    760 O          23.9692   22.4752   24.1619 OW       217 WAT     -0.834000
    761 H1         23.4238   21.7633   24.4966 HW       217 WAT      0.417000
    762 H2         24.6808   22.5509   24.7976 HW       217 WAT      0.417000
    763 O          22.0203   12.9267   45.7062 OW       218 WAT     -0.834000
    764 H1         22.8204   12.6263   46.1374 HW       218 WAT      0.417000
    765 H2         21.8035   13.7474   46.1485 HW       218 WAT      0.417000
    766 O          25.2399   33.5981   44.2117 OW       219 WAT     -0.834000
    767 H1         25.8895   33.2681   44.8325 HW       219 WAT      0.417000
    768 H2         25.7307   34.1941   43.6459 HW       219 WAT      0.417000
    769 O           4.1227    0.4017   10.3693 OW       220 WAT     -0.834000
    770 H1          3.2113    0.2074   10.1504 HW       220 WAT      0.417000
    771 H2          4.4710    0.8294    9.5870 HW       220 WAT      0.417000
    772 O          21.6406   32.6333   40.0196 OW       221 WAT     -0.834000
    773 H1         22.0335   31.7643   39.9380 HW       221 WAT      0.417000
    774 H2         21.0241   32.6870   39.2893 HW       221 WAT      0.417000
    775 O          25.8140   22.9797   40.4384 OW       222 WAT     -0.834000
    776 H1         26.6473   23.3094   40.1020 HW       222 WAT      0.417000
    777 H2         25.3741   23.7540   40.7893 HW       222 WAT      0.417000
    778 O           6.5023    8.8960   42.9420 OW       223 WAT     -0.834000
    779 H1          7.1034    8.3872   42.3980 HW       223 WAT      0.417000
    780 H2          6.8299    8.7801   43.8339 HW       223 WAT      0.417000
    781 O           6.7000   31.2226   10.2015 OW       224 WAT     -0.834000
    782 H1          6.5892   31.0457    9.2673 HW       224 WAT      0.417000
    783 H2          5.8487   31.5559   10.4848 HW       224 WAT      0.417000
    784 O          24.7127    9.8669   33.1814 OW       225 WAT     -0.834000
    785 H1         25.1743    9.8187   32.3443 HW       225 WAT      0.417000
    786 H2         23.8335   10.1689   32.9531 HW       225 WAT      0.417000
    787 O           7.1271    9.0624   45.7218 OW       226 WAT     -0.834000
    788 H1          6.2496    9.3072   46.0155 HW       226 WAT      0.417000
    789 H2          7.3255    8.2592   46.2032 HW       226 WAT      0.417000
    790 O          15.6484   28.8048   30.3767 OW       227 WAT     -0.834000
    791 H1         14.8128   28.5708   30.7808 HW       227 WAT      0.417000
    792 H2         15.6629   28.3140   29.5550 HW       227 WAT      0.417000
    793 O          33.0229   17.1788   25.4019 OW       228 WAT     -0.834000
    794 H1         33.5417   16.8785   24.6557 HW       228 WAT      0.417000
    795 H2         32.2953   16.5589   25.4528 HW       228 WAT      0.417000
    796 O          25.5716   24.4097   11.7460 OW       229 WAT     -0.834000
    797 H1         25.1322   23.5630   11.6666 HW       229 WAT      0.417000
    798 H2         24.8643   25.0525   11.6926 HW       229 WAT      0.417000
    799 O          17.3799    0.3489    4.2111 OW       230 WAT     -0.834000
    800 H1         17.0701    1.0503    3.6382 HW       230 WAT      0.417000
    801 H2         18.0651    0.7571    4.7405 HW       230 WAT      0.417000
    802 O          12.6709   15.5339    0.0839 OW       231 WAT     -0.834000
    803 H1         12.0398   15.4234    0.7951 HW       231 WAT      0.417000
    804 H2         12.1465   15.4675   -0.7141 HW       231 WAT      0.417000
    805 O          16.7839   36.2350    7.3662 OW       232 WAT     -0.834000
    806 H1         17.4866   36.8846    7.3409 HW       232 WAT      0.417000
    807 H2         16.7686   35.9339    8.2746 HW       232 WAT      0.417000
    808 O          19.4436   18.7231   46.6939 OW       233 WAT     -0.834000
    809 H1         19.6988   19.5767   47.0439 HW       233 WAT      0.417000
    810 H2         20.2586   18.3474   46.3611 HW       233 WAT      0.417000
    811 O          14.9021   18.7844   14.2286 OW       234 WAT     -0.834000
    812 H1         14.1126   18.4761   14.6734 HW       234 WAT      0.417000
    813 H2         14.9403   19.7196   14.4292 HW       234 WAT      0.417000
    814 O          34.8538    7.7852   46.4310 OW       235 WAT     -0.834000
    815 H1         33.9284    8.0080   46.5321 HW       235 WAT      0.417000
    816 H2         34.8602    6.8350   46.3152 HW       235 WAT      0.417000
    817 O           4.4734   32.3135    1.6734 OW       236 WAT     -0.834000
    818 H1          4.8895   32.9318    1.0727 HW       236 WAT      0.417000
    819 H2          4.2485   32.8396    2.4408 HW       236 WAT      0.417000
    820 O          32.1631   22.8072   49.7387 OW       237 WAT     -0.834000
    821 H1         31.9499   23.6934   49.4461 HW       237 WAT      0.417000
    822 H2         31.4405   22.2684   49.4167 HW       237 WAT      0.417000
    823 O          26.6098   14.6915   10.3156 OW       238 WAT     -0.834000
    824 H1         27.3970   14.3227    9.9149 HW       238 WAT      0.417000
    825 H2         25.9589   13.9925   10.2524 HW       238 WAT      0.417000
    826 O           8.0851   15.1857   45.3631 OW       239 WAT     -0.834000
    827 H1          7.4234   15.8153   45.6495 HW       239 WAT      0.417000
    828 H2          7.6168   14.3524   45.3126 HW       239 WAT      0.417000
    829 O          34.1012   10.0062    5.2739 OW       240 WAT     -0.834000
    830 H1         34.5643    9.2767    4.8621 HW       240 WAT      0.417000
    831 H2         34.7688   10.4481    5.7985 HW       240 WAT      0.417000
    832 O          16.1987   27.2933   38.9711 OW       241 WAT     -0.834000
    833 H1         16.1647   27.2458   39.9265 HW       241 WAT      0.417000
    834 H2         15.4081   27.7744   38.7269 HW       241 WAT      0.417000
    835 O           1.6613   11.4466   47.7722 OW       242 WAT     -0.834000
    836 H1          0.8701   11.9833   47.8189 HW       242 WAT      0.417000
    837 H2          1.4269   10.7246   47.1891 HW       242 WAT      0.417000
    838 O          17.5807   22.2440    7.3039 OW       243 WAT     -0.834000
    839 H1         17.9413   23.0376    6.9083 HW       243 WAT      0.417000
    840 H2         17.0058   22.5631    7.9994 HW       243 WAT      0.417000
    841 O          30.2659   33.3297   34.3727 OW       244 WAT     -0.834000
    842 H1         30.0090   34.1007   33.8669 HW       244 WAT      0.417000
    843 H2         31.2083   33.4333   34.5050 HW       244 WAT      0.417000
    844 O          29.2037   11.5147   19.5140 OW       245 WAT     -0.834000
    845 H1         29.3350   12.1376   18.7992 HW       245 WAT      0.417000
    846 H2         28.2998   11.2174   19.4097 HW       245 WAT      0.417000
    847 O          12.0961   20.6446   14.1372 OW       246 WAT     -0.834000
    848 H1         11.5761   20.3515   13.3889 HW       246 WAT      0.417000
    849 H2         11.5933   21.3691   14.5092 HW       246 WAT      0.417000
    850 O          16.5978    8.0775   38.0134 OW       247 WAT     -0.834000
    851 H1         16.0595    8.6580   37.4754 HW       247 WAT      0.417000
    852 H2         17.1438    7.6059   37.3844 HW       247 WAT      0.417000
    853 O          19.8052   15.9070   18.3228 OW       248 WAT     -0.834000
    854 H1         20.2171   16.3358   17.5727 HW       248 WAT      0.417000
    855 H2         20.4970   15.8625   18.9828 HW       248 WAT      0.417000
    856 O          11.2662   35.5054    0.6329 OW       249 WAT     -0.834000
    857 H1         10.6081   36.1972    0.7001 HW       249 WAT      0.417000
    858 H2         12.0859   35.9701    0.4648 HW       249 WAT      0.417000
    859 O           1.0215   12.4325   17.4461 OW       250 WAT     -0.834000
    860 H1          0.8704   11.7565   18.1068 HW       250 WAT      0.417000
    861 H2          0.1445   12.7241   17.1970 HW       250 WAT      0.417000
    862 O           1.4724    6.3126   50.8486 OW       251 WAT     -0.834000
    863 H1          1.1464    6.5204   49.9730 HW       251 WAT      0.417000
    864 H2          2.1805    5.6863   50.6982 HW       251 WAT      0.417000
    865 O           4.8450   17.4043   42.7759 OW       252 WAT     -0.834000
    866 H1          4.5626   18.2594   43.1002 HW       252 WAT      0.417000
    867 H2          5.1720   17.5789   41.8934 HW       252 WAT      0.417000
    868 O          32.7526    0.8685   37.1844 OW       253 WAT     -0.834000
    869 H1         32.0439    1.4197   37.5163 HW       253 WAT      0.417000
    870 H2         32.7547    1.0239   36.2399 HW       253 WAT      0.417000
    871 O          10.9700   22.5436   43.4486 OW       254 WAT     -0.834000
    872 H1         10.1982   22.7060   43.9910 HW       254 WAT      0.417000
    873 H2         11.3380   23.4127   43.2894 HW       254 WAT      0.417000
    874 O          14.0840   29.8769   39.6244 OW       255 WAT     -0.834000
    875 H1         13.7352   30.3395   38.8625 HW       255 WAT      0.417000
    876 H2         15.0223   30.0656   39.6103 HW       255 WAT      0.417000
    877 O           4.0544   16.5386   31.3819 OW       256 WAT     -0.834000
    878 H1          4.9934   16.7089   31.3066 HW       256 WAT      0.417000
    879 H2          3.7098   16.7047   30.5045 HW       256 WAT      0.417000
    880 O          17.0618    8.3771   33.7895 OW       257 WAT     -0.834000
    881 H1         16.5854    9.1994   33.6756 HW       257 WAT      0.417000
    882 H2         17.9791    8.6097   33.6454 HW       257 WAT      0.417000
    883 O          23.3879   36.7179   35.6644 OW       258 WAT     -0.834000
    884 H1         23.0828   35.8643   35.3570 HW       258 WAT      0.417000
    885 H2         22.6035   37.2666   35.6649 HW       258 WAT      0.417000
    886 O           6.2826   22.4997   23.0113 OW       259 WAT     -0.834000
    887 H1          6.2330   22.9463   23.8565 HW       259 WAT      0.417000
    888 H2          7.1597   22.7010   22.6852 HW       259 WAT      0.417000
    889 O          15.5963   29.1428   11.4758 OW       260 WAT     -0.834000
    890 H1         14.7593   29.5920   11.5935 HW       260 WAT      0.417000
    891 H2         16.1203   29.4111   12.2306 HW       260 WAT      0.417000
    892 O          25.9200    6.7726   25.7000 OW       261 WAT     -0.834000
    893 H1         25.1888    7.3126   25.9998 HW       261 WAT      0.417000
    894 H2         25.6243    5.8723   25.8355 HW       261 WAT      0.417000
    895 O           0.9970   32.2600   32.7658 OW       262 WAT     -0.834000
    896 H1          1.8541   32.1286   32.3603 HW       262 WAT      0.417000
    897 H2          0.9114   31.5353   33.3852 HW       262 WAT      0.417000
    898 O          13.8042   26.0454   18.9882 OW       263 WAT     -0.834000
    899 H1         14.2471   26.8670   18.7758 HW       263 WAT      0.417000
    900 H2         14.4318   25.5685   19.5312 HW       263 WAT      0.417000
    901 O           3.7320   29.6434    4.6600 OW       264 WAT     -0.834000
    902 H1          4.6367   29.5786    4.3542 HW       264 WAT      0.417000
    903 H2          3.2100   29.6765    3.8583 HW       264 WAT      0.417000
    904 O          29.6401   31.3707   18.8056 OW       265 WAT     -0.834000
    905 H1         29.1226   30.8932   18.1572 HW       265 WAT      0.417000
    906 H2         28.9909   31.7499   19.3980 HW       265 WAT      0.417000
    907 O           4.5623   34.1778   48.6803 OW       266 WAT     -0.834000
    908 H1          5.4044   34.4598   48.3230 HW       266 WAT      0.417000
    909 H2          3.9137   34.5274   48.0692 HW       266 WAT      0.417000
    910 O           4.9184   31.6412   42.5742 OW       267 WAT     -0.834000
    911 H1          4.9383   31.9490   43.4804 HW       267 WAT      0.417000
    912 H2          4.0039   31.7380   42.3085 HW       267 WAT      0.417000
    913 O           9.2485   25.0622   42.5752 OW       268 WAT     -0.834000
    914 H1          9.8723   25.3104   43.2574 HW       268 WAT      0.417000
    915 H2          9.6203   25.4202   41.7690 HW       268 WAT      0.417000
    916 O          21.7857   25.3302   16.5754 OW       269 WAT     -0.834000
    917 H1         21.0667   24.6990   16.6062 HW       269 WAT      0.417000
    918 H2         22.5726   24.7927   16.4854 HW       269 WAT      0.417000
    919 O           1.6111    6.6141   36.1174 OW       270 WAT     -0.834000
    920 H1          0.9201    6.4793   35.4688 HW       270 WAT      0.417000
    921 H2          1.1492    6.9127   36.9008 HW       270 WAT      0.417000
    922 O          -0.1832    2.8955   13.0582 OW       271 WAT     -0.834000
    923 H1          0.3479    3.6132   12.7131 HW       271 WAT      0.417000
    924 H2         -0.1557    3.0123   14.0078 HW       271 WAT      0.417000
    925 O          20.1432   28.4060    6.5244 OW       272 WAT     -0.834000
    926 H1         19.4117   28.1249    7.0741 HW       272 WAT      0.417000
    927 H2         20.9182   28.2717    7.0698 HW       272 WAT      0.417000
    928 O          24.2439   23.8443   47.0568 OW       273 WAT     -0.834000
    929 H1         24.0675   22.9834   46.6774 HW       273 WAT      0.417000
    930 H2         23.4672   24.0387   47.5813 HW       273 WAT      0.417000
    931 O           4.3803   17.3807   50.5396 OW       274 WAT     -0.834000
    932 H1          4.0003   18.1754   50.1651 HW       274 WAT      0.417000
    933 H2          3.8128   16.6749   50.2298 HW       274 WAT      0.417000
    934 O          29.9756   10.2683   45.3946 OW       275 WAT     -0.834000
    935 H1         30.3759   10.7373   46.1267 HW       275 WAT      0.417000
    936 H2         29.0498   10.2034   45.6292 HW       275 WAT      0.417000
    937 O          26.5315    4.4954    8.4249 OW       276 WAT     -0.834000
    938 H1         25.9582    4.5759    7.6626 HW       276 WAT      0.417000
    939 H2         25.9533    4.2028    9.1295 HW       276 WAT      0.417000
    940 O          32.4580   31.3219   23.7503 OW       277 WAT     -0.834000
    941 H1         31.6149   31.4732   24.1777 HW       277 WAT      0.417000
    942 H2         32.8973   30.6796   24.3077 HW       277 WAT      0.417000
    943 O          21.7963   20.5669   47.2089 OW       278 WAT     -0.834000
    944 H1         22.4643   20.9176   46.6199 HW       278 WAT      0.417000
    945 H2         22.2635   20.3972   48.0269 HW       278 WAT      0.417000
    946 O          18.1611   24.9224   40.9785 OW       279 WAT     -0.834000
    947 H1         17.7543   25.7829   41.0795 HW       279 WAT      0.417000
    948 H2         17.6165   24.4745   40.3312 HW       279 WAT      0.417000
    949 O           5.8556   26.4540    9.8295 OW       280 WAT     -0.834000
    950 H1          5.1310   26.5854    9.2180 HW       280 WAT      0.417000
    951 H2          6.4803   25.9119    9.3478 HW       280 WAT      0.417000
    952 O           2.8489   10.8840   50.3342 OW       281 WAT     -0.834000
    953 H1          3.7874   10.8678   50.1464 HW       281 WAT      0.417000
    954 H2          2.4602   11.3180   49.5747 HW       281 WAT      0.417000
    955 O          25.2752   11.7443   37.4919 OW       282 WAT     -0.834000
    956 H1         25.2487   12.7008   37.5174 HW       282 WAT      0.417000
    957 H2         26.1682   11.5223   37.7556 HW       282 WAT      0.417000
    958 O          15.9023   29.8495    6.2037 OW       283 WAT     -0.834000
    959 H1         15.0007   30.1708    6.1965 HW       283 WAT      0.417000
    960 H2         15.9091   29.1405    5.5607 HW       283 WAT      0.417000
    961 O          13.2202   30.3376   44.0919 OW       284 WAT     -0.834000
    962 H1         13.8345   29.8826   43.5159 HW       284 WAT      0.417000
    963 H2         13.7668   30.9384   44.5983 HW       284 WAT      0.417000
    964 O          28.8118   29.6831    6.9535 OW       285 WAT     -0.834000
    965 H1         28.2694   28.9753    6.6056 HW       285 WAT      0.417000
    966 H2         28.6262   29.6878    7.8925 HW       285 WAT      0.417000
    967 O          25.1207   16.0766    8.4646 OW       286 WAT     -0.834000
    968 H1         25.5072   15.4727    9.0988 HW       286 WAT      0.417000
    969 H2         25.8304   16.2660    7.8509 HW       286 WAT      0.417000
    970 O          29.9562    1.7990   38.0709 OW       287 WAT     -0.834000
    971 H1         30.4188    1.8451   38.9077 HW       287 WAT      0.417000
    972 H2         29.5014    2.6385   38.0022 HW       287 WAT      0.417000
    973 O          17.6280    7.0880    5.9391 OW       288 WAT     -0.834000
    974 H1         17.5008    7.8641    6.4849 HW       288 WAT      0.417000
    975 H2         16.8431    7.0483    5.3927 HW       288 WAT      0.417000
    976 O           1.8890   25.2780   19.8780 OW       289 WAT     -0.834000
    977 H1          2.4072   25.8468   20.4474 HW       289 WAT      0.417000
    978 H2          2.5228   24.6573   19.5185 HW       289 WAT      0.417000
    979 O           1.3220   30.2404   18.6998 OW       290 WAT     -0.834000
    980 H1          1.8378   30.1596   19.5020 HW       290 WAT      0.417000
    981 H2          0.4588   29.9000   18.9348 HW       290 WAT      0.417000
    982 O           9.1798    1.9056   44.6138 OW       291 WAT     -0.834000
    983 H1          9.2469    0.9510   44.5917 HW       291 WAT      0.417000
    984 H2          9.7231    2.1668   45.3573 HW       291 WAT      0.417000
    985 O          21.8442   23.8665   37.5529 OW       292 WAT     -0.834000
    986 H1         21.4928   24.2795   38.3417 HW       292 WAT      0.417000
    987 H2         21.1286   23.3186   37.2304 HW       292 WAT      0.417000
    988 O          12.6897   21.0596   48.9914 OW       293 WAT     -0.834000
    989 H1         13.2580   21.7780   48.7138 HW       293 WAT      0.417000
    990 H2         12.7203   20.4360   48.2658 HW       293 WAT      0.417000
    991 O          35.1234    1.0979   28.8105 OW       294 WAT     -0.834000
    992 H1         35.4152    0.4437   29.4454 HW       294 WAT      0.417000
    993 H2         35.5325    1.9130   29.1012 HW       294 WAT      0.417000
    994 O          20.3002   17.6746    1.7156 OW       295 WAT     -0.834000
    995 H1         20.4609   16.8158    1.3247 HW       295 WAT      0.417000
    996 H2         19.6365   17.5122    2.3859 HW       295 WAT      0.417000
    997 O          22.2059   27.1705   28.0941 OW       296 WAT     -0.834000
    998 H1         22.3434   26.8947   29.0003 HW       296 WAT      0.417000
    999 H2         22.9305   26.7739   27.6105 HW       296 WAT      0.417000
   1000 O          35.8868   24.6937   40.2895 OW       297 WAT     -0.834000
   1001 H1         35.3325   25.0089   39.5756 HW       297 WAT      0.417000
   1002 H2         35.7689   23.7438   40.2826 HW       297 WAT      0.417000
   1003 O          36.3581   20.8953   28.8382 OW       298 WAT     -0.834000
   1004 H1         35.9728   20.2964   29.4778 HW       298 WAT      0.417000
   1005 H2         35.6294   21.1359   28.2660 HW       298 WAT      0.417000
   1006 O          28.1610   30.9145   13.1405 OW       299 WAT     -0.834000
   1007 H1         27.2230   30.8264   12.9715 HW       299 WAT      0.417000
   1008 H2         28.4354   30.0438   13.4283 HW       299 WAT      0.417000
   1009 O          13.6389   36.4615   51.4960 OW       300 WAT     -0.834000
   1010 H1         14.2038   35.6892   51.4708 HW       300 WAT      0.417000
   1011 H2         14.0368   37.0697   50.8732 HW       300 WAT      0.417000
   1012 O          26.1357   11.6869    9.0062 OW       301 WAT     -0.834000
   1013 H1         25.3176   11.4383    8.5760 HW       301 WAT      0.417000
   1014 H2         26.2168   11.0756    9.7382 HW       301 WAT      0.417000
   1015 O          25.3126   10.3441   24.6902 OW       302 WAT     -0.834000
   1016 H1         25.8697    9.6406   24.3572 HW       302 WAT      0.417000
   1017 H2         25.8235   11.1412   24.5496 HW       302 WAT      0.417000
   1018 O          21.6182   17.4784   45.7004 OW       303 WAT     -0.834000
   1019 H1         21.5941   17.8296   44.8103 HW       303 WAT      0.417000
   1020 H2         22.5348   17.2399   45.8391 HW       303 WAT      0.417000
   1021 O          18.7243   14.3858   26.1063 OW       304 WAT     -0.834000
   1022 H1         18.3697   14.1284   25.2552 HW       304 WAT      0.417000
   1023 H2         18.9821   13.5609   26.5178 HW       304 WAT      0.417000
   1024 O          27.3894   29.6673   46.5660 OW       305 WAT     -0.834000
   1025 H1         27.5802   28.9330   45.9824 HW       305 WAT      0.417000
   1026 H2         26.4714   29.5477   46.8093 HW       305 WAT      0.417000
   1027 O          25.9439   35.5155   37.8905 OW       306 WAT     -0.834000
   1028 H1         25.4078   34.7410   38.0606 HW       306 WAT      0.417000
   1029 H2         26.7504   35.3614   38.3825 HW       306 WAT      0.417000
   1030 O          36.0565   12.8874   47.0054 OW       307 WAT     -0.834000
   1031 H1         35.1361   12.6365   47.0831 HW       307 WAT      0.417000
   1032 H2         36.1251   13.2802   46.1352 HW       307 WAT      0.417000
   1033 O          30.1395    3.1180   32.7600 OW       308 WAT     -0.834000
   1034 H1         29.8307    2.2126   32.7930 HW       308 WAT      0.417000
   1035 H2         29.3526    3.6447   32.9004 HW       308 WAT      0.417000
   1036 O          24.3989   35.7051   46.7305 OW       309 WAT     -0.834000
   1037 H1         23.7694   35.8328   46.0208 HW       309 WAT      0.417000
   1038 H2         23.8872   35.3104   47.4365 HW       309 WAT      0.417000
   1039 O           7.8269    4.1783   19.4057 OW       310 WAT     -0.834000
   1040 H1          7.5299    4.2644   18.4998 HW       310 WAT      0.417000
   1041 H2          8.7807    4.2372   19.3517 HW       310 WAT      0.417000
   1042 O          11.8345   10.1917    6.2826 OW       311 WAT     -0.834000
   1043 H1         11.9966    9.3008    6.5927 HW       311 WAT      0.417000
   1044 H2         12.6373   10.4346    5.8214 HW       311 WAT      0.417000
   1045 O          20.6015   17.1005   43.0314 OW       312 WAT     -0.834000
   1046 H1         20.2052   17.8910   42.6649 HW       312 WAT      0.417000
   1047 H2         20.3451   16.4025   42.4287 HW       312 WAT      0.417000
   1048 O          25.5401   21.7869   43.4681 OW       313 WAT     -0.834000
   1049 H1         24.6810   21.9055   43.8731 HW       313 WAT      0.417000
   1050 H2         25.3479   21.5981   42.5496 HW       313 WAT      0.417000
   1051 O           2.5803   22.8621   26.7221 OW       314 WAT     -0.834000
   1052 H1          2.6253   22.8697   25.7660 HW       314 WAT      0.417000
   1053 H2          3.2274   22.2085   26.9871 HW       314 WAT      0.417000
   1054 O          30.9608   25.1355   16.8422 OW       315 WAT     -0.834000
   1055 H1         30.5075   24.8596   17.6388 HW       315 WAT      0.417000
   1056 H2         31.7543   25.5691   17.1561 HW       315 WAT      0.417000
   1057 O           2.1200   30.0955   15.4468 OW       316 WAT     -0.834000
   1058 H1          1.3217   30.6236   15.4462 HW       316 WAT      0.417000
   1059 H2          1.8085   29.1905   15.4368 HW       316 WAT      0.417000
   1060 O          26.8528   35.5552   46.0595 OW       317 WAT     -0.834000
   1061 H1         26.9518   36.0172   45.2270 HW       317 WAT      0.417000
   1062 H2         25.9146   35.5947   46.2452 HW       317 WAT      0.417000
   1063 O          34.6287   25.3251   25.6610 OW       318 WAT     -0.834000
   1064 H1         34.9019   25.9617   25.0005 HW       318 WAT      0.417000
   1065 H2         34.8418   25.7404   26.4966 HW       318 WAT      0.417000
   1066 O          21.1624   32.4014   10.5454 OW       319 WAT     -0.834000
   1067 H1         21.4740   33.1461   10.0311 HW       319 WAT      0.417000
   1068 H2         21.0439   31.7005    9.9043 HW       319 WAT      0.417000
   1069 O          33.4057   24.7164    0.1812 OW       320 WAT     -0.834000
   1070 H1         32.9403   23.9553   -0.1657 HW       320 WAT      0.417000
   1071 H2         34.3311   24.5155    0.0412 HW       320 WAT      0.417000
   1072 O          19.8606   23.5426   16.8428 OW       321 WAT     -0.834000
   1073 H1         19.5329   22.9432   17.5133 HW       321 WAT      0.417000
   1074 H2         19.3227   23.3579   16.0729 HW       321 WAT      0.417000
   1075 O          12.1340   14.6691   35.5602 OW       322 WAT     -0.834000
   1076 H1         11.5311   13.9259   35.5411 HW       322 WAT      0.417000
   1077 H2         12.6958   14.5024   36.3171 HW       322 WAT      0.417000
   1078 O           2.4044   26.9954    1.0158 OW       323 WAT     -0.834000
   1079 H1          1.5836   27.4873    1.0369 HW       323 WAT      0.417000
   1080 H2          2.6652   27.0039    0.0949 HW       323 WAT      0.417000
   1081 O          31.2836    8.9645    3.1441 OW       324 WAT     -0.834000
   1082 H1         32.0429    9.1978    3.6783 HW       324 WAT      0.417000
   1083 H2         31.6038    8.2769    2.5602 HW       324 WAT      0.417000
   1084 O           1.6719   32.9223   50.0413 OW       325 WAT     -0.834000
   1085 H1          1.3587   33.1556   49.1674 HW       325 WAT      0.417000
   1086 H2          2.6120   33.1005   50.0142 HW       325 WAT      0.417000
   1087 O           6.5675    3.6608   13.9857 OW       326 WAT     -0.834000
   1088 H1          6.0851    4.4424   13.7161 HW       326 WAT      0.417000
   1089 H2          6.1836    2.9523   13.4691 HW       326 WAT      0.417000
   1090 O          31.8349   31.6265   29.0918 OW       327 WAT     -0.834000
   1091 H1         31.6708   32.4970   28.7292 HW       327 WAT      0.417000
   1092 H2         31.6694   31.0284   28.3631 HW       327 WAT      0.417000
   1093 O          32.9160   19.4698    1.9162 OW       328 WAT     -0.834000
   1094 H1         32.8097   19.9354    2.7457 HW       328 WAT      0.417000
   1095 H2         33.0006   18.5499    2.1670 HW       328 WAT      0.417000
   1096 O          25.4888   30.2954   12.4774 OW       329 WAT     -0.834000
   1097 H1         24.7582   30.6275   11.9558 HW       329 WAT      0.417000
   1098 H2         25.1526   30.2725   13.3733 HW       329 WAT      0.417000
   1099 O           4.4851    0.4478   45.7123 OW       330 WAT     -0.834000
   1100 H1          5.3366    0.8757   45.6224 HW       330 WAT      0.417000
   1101 H2          3.9417    1.0895   46.1696 HW       330 WAT      0.417000
   1102 O          12.2527   17.4835   31.2057 OW       331 WAT     -0.834000
   1103 H1         12.3390   18.2254   31.8043 HW       331 WAT      0.417000
   1104 H2         12.9947   17.5708   30.6074 HW       331 WAT      0.417000
   1105 O           1.8027   14.0774   25.8055 OW       332 WAT     -0.834000
   1106 H1          1.2711   13.7324   25.0880 HW       332 WAT      0.417000
   1107 H2          2.3414   14.7564   25.3993 HW       332 WAT      0.417000
   1108 O          22.8466   29.8740    4.6030 OW       333 WAT     -0.834000
   1109 H1         23.0288   30.2695    3.7506 HW       333 WAT      0.417000
   1110 H2         21.9098   29.6788    4.5812 HW       333 WAT      0.417000
   1111 O          21.6096    5.9629   26.1363 OW       334 WAT     -0.834000
   1112 H1         20.7141    5.6933   25.9322 HW       334 WAT      0.417000
   1113 H2         22.1552    5.2462   25.8122 HW       334 WAT      0.417000
   1114 O          29.8887   20.1053   16.8101 OW       335 WAT     -0.834000
   1115 H1         30.6212   20.4405   16.2930 HW       335 WAT      0.417000
   1116 H2         29.1171   20.5307   16.4361 HW       335 WAT      0.417000
   1117 O          32.8927   36.2339   19.0035 OW       336 WAT     -0.834000
   1118 H1         32.2295   36.9197   19.0807 HW       336 WAT      0.417000
   1119 H2         32.3909   35.4206   18.9481 HW       336 WAT      0.417000
   1120 O          33.7051   15.7234   35.4858 OW       337 WAT     -0.834000
   1121 H1         32.7643   15.7079   35.3103 HW       337 WAT      0.417000
   1122 H2         34.1058   15.8781   34.6304 HW       337 WAT      0.417000
   1123 O          33.0072   21.3786   19.3463 OW       338 WAT     -0.834000
   1124 H1         33.3912   21.6920   20.1652 HW       338 WAT      0.417000
   1125 H2         32.0921   21.2009   19.5635 HW       338 WAT      0.417000
   1126 O          16.8551   33.7547   13.0985 OW       339 WAT     -0.834000
   1127 H1         17.5834   33.8336   13.7146 HW       339 WAT      0.417000
   1128 H2         17.2622   33.4652   12.2820 HW       339 WAT      0.417000
   1129 O          26.0306    9.4679   48.5715 OW       340 WAT     -0.834000
   1130 H1         25.9371    8.5437   48.3404 HW       340 WAT      0.417000
   1131 H2         25.1795    9.7108   48.9362 HW       340 WAT      0.417000
   1132 O          22.8014    5.1285   16.3958 OW       341 WAT     -0.834000
   1133 H1         23.1324    5.0146   15.5049 HW       341 WAT      0.417000
   1134 H2         22.5035    6.0377   16.4263 HW       341 WAT      0.417000
   1135 O          29.7816   36.0777   46.5114 OW       342 WAT     -0.834000
   1136 H1         28.9114   35.8406   46.1910 HW       342 WAT      0.417000
   1137 H2         29.9690   36.9192   46.0954 HW       342 WAT      0.417000
   1138 O          13.4806   34.1574   36.6437 OW       343 WAT     -0.834000
   1139 H1         14.0881   34.8451   36.9161 HW       343 WAT      0.417000
   1140 H2         12.6134   34.5130   36.8381 HW       343 WAT      0.417000
   1141 O          13.2366   32.4220   40.6875 OW       344 WAT     -0.834000
   1142 H1         12.3914   32.8561   40.5710 HW       344 WAT      0.417000
   1143 H2         13.4394   32.0577   39.8259 HW       344 WAT      0.417000
   1144 O          15.5069   15.8256    2.5650 OW       345 WAT     -0.834000
   1145 H1         15.1189   15.4492    1.7750 HW       345 WAT      0.417000
   1146 H2         15.3766   15.1572    3.2377 HW       345 WAT      0.417000
   1147 O           9.5052   15.5823   40.6692 OW       346 WAT     -0.834000
   1148 H1          9.0140   14.7963   40.9084 HW       346 WAT      0.417000
   1149 H2          9.5305   16.1026   41.4723 HW       346 WAT      0.417000
   1150 O          28.8884    3.6986    9.5775 OW       347 WAT     -0.834000
   1151 H1         28.2814    3.9814    8.8935 HW       347 WAT      0.417000
   1152 H2         28.7017    2.7670    9.6932 HW       347 WAT      0.417000
   1153 O          29.6597   36.1757   29.6130 OW       348 WAT     -0.834000
   1154 H1         29.6894   36.3278   30.5576 HW       348 WAT      0.417000
   1155 H2         29.2862   36.9799   29.2526 HW       348 WAT      0.417000
   1156 O           1.6340   27.4133   15.6927 OW       349 WAT     -0.834000
   1157 H1          2.3969   27.4552   16.2693 HW       349 WAT      0.417000
   1158 H2          1.9059   26.8387   14.9770 HW       349 WAT      0.417000
   1159 O          33.4315   10.5301   34.5668 OW       350 WAT     -0.834000
   1160 H1         33.9093   11.2406   34.1389 HW       350 WAT      0.417000
   1161 H2         32.5437   10.5923   34.2145 HW       350 WAT      0.417000
   1162 O          25.8127   28.4936   28.1998 OW       351 WAT     -0.834000
   1163 H1         25.7328   28.3841   29.1474 HW       351 WAT      0.417000
   1164 H2         25.3040   27.7712   27.8315 HW       351 WAT      0.417000
   1165 O          35.6579    3.8333   29.1885 OW       352 WAT     -0.834000
   1166 H1         36.2786    3.4305   29.7957 HW       352 WAT      0.417000
   1167 H2         36.1290    3.8740   28.3563 HW       352 WAT      0.417000
   1168 O          32.2668   25.3328   12.3605 OW       353 WAT     -0.834000
   1169 H1         32.3636   24.7829   11.5831 HW       353 WAT      0.417000
   1170 H2         32.1629   24.7119   13.0816 HW       353 WAT      0.417000
   1171 O          24.0111   17.9801   10.1725 OW       354 WAT     -0.834000
   1172 H1         24.3549   17.3692    9.5206 HW       354 WAT      0.417000
   1173 H2         23.0717   17.7985   10.1989 HW       354 WAT      0.417000
   1174 O          24.6638   12.4703   22.2678 OW       355 WAT     -0.834000
   1175 H1         25.5370   12.1707   22.0148 HW       355 WAT      0.417000
   1176 H2         24.0841   11.7464   22.0308 HW       355 WAT      0.417000
   1177 O          20.0261   16.3597   15.2549 OW       356 WAT     -0.834000
   1178 H1         19.2890   15.8921   14.8623 HW       356 WAT      0.417000
   1179 H2         20.8011   15.9581   14.8621 HW       356 WAT      0.417000
   1180 O          24.7907   24.6205   17.1029 OW       357 WAT     -0.834000
   1181 H1         25.0204   24.8705   16.2080 HW       357 WAT      0.417000
   1182 H2         24.6445   25.4520   17.5539 HW       357 WAT      0.417000
   1183 O          36.4727   31.2603   16.5654 OW       358 WAT     -0.834000
   1184 H1         37.0425   31.0331   17.3001 HW       358 WAT      0.417000
   1185 H2         35.5971   31.0009   16.8521 HW       358 WAT      0.417000
   1186 O           3.2840    9.0253   18.8109 OW       359 WAT     -0.834000
   1187 H1          3.0402    9.9507   18.7921 HW       359 WAT      0.417000
   1188 H2          2.9113    8.6960   19.6288 HW       359 WAT      0.417000
   1189 O          12.2979    1.0990   21.7320 OW       360 WAT     -0.834000
   1190 H1         12.3758    0.9425   20.7909 HW       360 WAT      0.417000
   1191 H2         12.0188    0.2573   22.0925 HW       360 WAT      0.417000
   1192 O          28.1809    5.0384   33.2439 OW       361 WAT     -0.834000
   1193 H1         27.3203    5.3939   33.0219 HW       361 WAT      0.417000
   1194 H2         28.6529    5.7766   33.6292 HW       361 WAT      0.417000
   1195 O          34.3304   30.7329   25.9511 OW       362 WAT     -0.834000
   1196 H1         33.5756   30.3914   26.4305 HW       362 WAT      0.417000
   1197 H2         34.6897   31.4120   26.5220 HW       362 WAT      0.417000
   1198 O          35.9722   27.2416   34.7686 OW       363 WAT     -0.834000
   1199 H1         36.3547   28.1177   34.7191 HW       363 WAT      0.417000
   1200 H2         35.0816   27.3869   35.0878 HW       363 WAT      0.417000
   1201 O          22.9676   32.0053   51.0237 OW       364 WAT     -0.834000
   1202 H1         23.6839   31.3774   50.9299 HW       364 WAT      0.417000
   1203 H2         22.7309   31.9622   51.9502 HW       364 WAT      0.417000
   1204 O          20.7053   28.4586   39.2046 OW       365 WAT     -0.834000
   1205 H1         21.1975   28.8105   38.4629 HW       365 WAT      0.417000
   1206 H2         20.0301   27.9100   38.8054 HW       365 WAT      0.417000
   1207 O          32.0715   14.2688   41.3999 OW       366 WAT     -0.834000
   1208 H1         32.4372   13.6174   41.9984 HW       366 WAT      0.417000
   1209 H2         32.8365   14.6945   41.0128 HW       366 WAT      0.417000
   1210 O           7.1587   14.8556   15.7434 OW       367 WAT     -0.834000
   1211 H1          7.1695   15.2435   14.8684 HW       367 WAT      0.417000
   1212 H2          7.9087   14.2609   15.7510 HW       367 WAT      0.417000
   1213 O           6.3581   11.7479   13.2126 OW       368 WAT     -0.834000
   1214 H1          5.5994   12.0851   12.7363 HW       368 WAT      0.417000
   1215 H2          6.7793   11.1472   12.5978 HW       368 WAT      0.417000
   1216 O          13.4312    8.2552   34.7950 OW       369 WAT     -0.834000
   1217 H1         13.2459    9.1831   34.9396 HW       369 WAT      0.417000
   1218 H2         13.6906    7.9259   35.6555 HW       369 WAT      0.417000
   1219 O          11.9913   33.3100   50.6618 OW       370 WAT     -0.834000
   1220 H1         11.3916   33.7805   51.2406 HW       370 WAT      0.417000
   1221 H2         12.3070   33.9761   50.0512 HW       370 WAT      0.417000
   1222 O          20.0862   30.5606   31.3470 OW       371 WAT     -0.834000
   1223 H1         19.2351   30.1380   31.4623 HW       371 WAT      0.417000
   1224 H2         20.6730   30.0807   31.9314 HW       371 WAT      0.417000
   1225 O           9.8579   17.6579   17.1288 OW       372 WAT     -0.834000
   1226 H1          9.7991   17.0183   17.8386 HW       372 WAT      0.417000
   1227 H2         10.7808   17.6497   16.8749 HW       372 WAT      0.417000
   1228 O           8.1317   10.5466   39.8461 OW       373 WAT     -0.834000
   1229 H1          7.5524   10.9038   40.5192 HW       373 WAT      0.417000
   1230 H2          7.6440   10.6531   39.0293 HW       373 WAT      0.417000
   1231 O          13.1160   15.9425   18.6824 OW       374 WAT     -0.834000
   1232 H1         13.2136   16.8946   18.6673 HW       374 WAT      0.417000
   1233 H2         12.6828   15.7329   17.8550 HW       374 WAT      0.417000
   1234 O          12.1598    2.4925   16.3621 OW       375 WAT     -0.834000
   1235 H1         11.6156    3.2110   16.0400 HW       375 WAT      0.417000
   1236 H2         12.1927    1.8719   15.6341 HW       375 WAT      0.417000
   1237 O          34.1291    9.4019   29.1008 OW       376 WAT     -0.834000
   1238 H1         33.4911   10.1038   29.2297 HW       376 WAT      0.417000
   1239 H2         33.6916    8.7854   28.5137 HW       376 WAT      0.417000
   1240 O          22.5963   26.0214   22.9898 OW       377 WAT     -0.834000
   1241 H1         22.3977   25.4878   23.7593 HW       377 WAT      0.417000
   1242 H2         22.1087   25.6065   22.2783 HW       377 WAT      0.417000
   1243 O          20.0985    1.5358   41.4881 OW       378 WAT     -0.834000
   1244 H1         19.6950    1.8737   40.6885 HW       378 WAT      0.417000
   1245 H2         20.5744    0.7551   41.2048 HW       378 WAT      0.417000
   1246 O          25.2513   22.5365    1.4427 OW       379 WAT     -0.834000
   1247 H1         24.5830   23.0759    1.8653 HW       379 WAT      0.417000
   1248 H2         25.9707   22.5087    2.0735 HW       379 WAT      0.417000
   1249 O          18.9295    3.2882   30.9589 OW       380 WAT     -0.834000
   1250 H1         19.0289    3.4015   30.0136 HW       380 WAT      0.417000
   1251 H2         18.0071    3.4806   31.1275 HW       380 WAT      0.417000
   1252 O          34.8466   26.1056    7.7337 OW       381 WAT     -0.834000
   1253 H1         34.0779   25.5592    7.8976 HW       381 WAT      0.417000
   1254 H2         34.7348   26.4126    6.8340 HW       381 WAT      0.417000
   1255 O          33.3032   27.3839   17.6222 OW       382 WAT     -0.834000
   1256 H1         33.7427   27.3579   16.7722 HW       382 WAT      0.417000
   1257 H2         33.9603   27.0662   18.2414 HW       382 WAT      0.417000
   1258 O          19.2292   15.0007   10.4469 OW       383 WAT     -0.834000
   1259 H1         19.6496   14.6607   11.2368 HW       383 WAT      0.417000
   1260 H2         19.6256   14.5034    9.7316 HW       383 WAT      0.417000
   1261 O          17.0513   32.9192   34.9999 OW       384 WAT     -0.834000
   1262 H1         17.1762   32.0550   34.6077 HW       384 WAT      0.417000
   1263 H2         17.1518   32.7722   35.9404 HW       384 WAT      0.417000
   1264 O          36.7837   27.4004   32.1858 OW       385 WAT     -0.834000
   1265 H1         36.3175   28.1799   31.8837 HW       385 WAT      0.417000
   1266 H2         36.1528   26.9451   32.7434 HW       385 WAT      0.417000
   1267 O           8.4279   29.5672   11.5290 OW       386 WAT     -0.834000
   1268 H1          7.8640   28.9984   12.0530 HW       386 WAT      0.417000
   1269 H2          7.8580   30.2877   11.2602 HW       386 WAT      0.417000
   1270 O          11.5428    2.0719   28.7654 OW       387 WAT     -0.834000
   1271 H1         11.7553    2.1624   27.8364 HW       387 WAT      0.417000
   1272 H2         10.6141    2.2967   28.8216 HW       387 WAT      0.417000
   1273 O          12.3008    7.6650    7.4908 OW       388 WAT     -0.834000
   1274 H1         11.5067    7.3293    7.9066 HW       388 WAT      0.417000
   1275 H2         13.0006    7.1017    7.8211 HW       388 WAT      0.417000
   1276 O          13.7332    2.5617    0.6201 OW       389 WAT     -0.834000
   1277 H1         13.7084    1.8944    1.3059 HW       389 WAT      0.417000
   1278 H2         14.5209    2.3578    0.1159 HW       389 WAT      0.417000
   1279 O           9.4984   12.8791   28.0163 OW       390 WAT     -0.834000
   1280 H1          8.6643   12.8321   27.5492 HW       390 WAT      0.417000
   1281 H2          9.8124   13.7692   27.8569 HW       390 WAT      0.417000
   1282 O           4.7915   28.7887   42.3897 OW       391 WAT     -0.834000
   1283 H1          3.9600   29.0884   42.0223 HW       391 WAT      0.417000
   1284 H2          5.2705   29.5938   42.5864 HW       391 WAT      0.417000
   1285 O           5.0707   13.6004   39.5975 OW       392 WAT     -0.834000
   1286 H1          4.5023   13.7293   38.8381 HW       392 WAT      0.417000
   1287 H2          4.4740   13.5996   40.3459 HW       392 WAT      0.417000
   1288 O           0.0552   13.2937    7.4356 OW       393 WAT     -0.834000
   1289 H1         -0.7607   13.7569    7.2458 HW       393 WAT      0.417000
   1290 H2          0.7125   13.9858    7.5073 HW       393 WAT      0.417000
   1291 O           7.6337    8.8939   34.8752 OW       394 WAT     -0.834000
   1292 H1          8.0234    8.0208   34.8304 HW       394 WAT      0.417000
   1293 H2          7.3813    9.0902   33.9730 HW       394 WAT      0.417000
   1294 O          23.7437   32.8526   41.8928 OW       395 WAT     -0.834000
   1295 H1         23.6731   31.9005   41.9617 HW       395 WAT      0.417000
   1296 H2         24.3297   33.1016   42.6075 HW       395 WAT      0.417000
   1297 O           6.4428   31.0256    2.8500 OW       396 WAT     -0.834000
   1298 H1          5.6410   31.2488    2.3773 HW       396 WAT      0.417000
   1299 H2          6.7189   31.8478    3.2549 HW       396 WAT      0.417000
   1300 O           7.2400   13.4758   49.4687 OW       397 WAT     -0.834000
   1301 H1          7.4303   13.1683   50.3549 HW       397 WAT      0.417000
   1302 H2          6.9510   12.6926   49.0003 HW       397 WAT      0.417000
   1303 O          19.8105   17.8462   21.7044 OW       398 WAT     -0.834000
   1304 H1         20.4658   17.3029   22.1422 HW       398 WAT      0.417000
   1305 H2         19.0810   17.2506   21.5335 HW       398 WAT      0.417000
   1306 O          17.9011   33.6096   40.8639 OW       399 WAT     -0.834000
   1307 H1         17.0955   34.0636   41.1109 HW       399 WAT      0.417000
   1308 H2         18.1253   33.0845   41.6322 HW       399 WAT      0.417000
   1309 O           3.7312    5.6662   22.5505 OW       400 WAT     -0.834000
   1310 H1          3.9479    6.3745   23.1569 HW       400 WAT      0.417000
   1311 H2          3.0860    6.0489   21.9559 HW       400 WAT      0.417000
   1312 O          15.1903    5.1967    7.9603 OW       401 WAT     -0.834000
   1313 H1         15.7723    5.7827    8.4443 HW       401 WAT      0.417000
   1314 H2         15.2988    5.4541    7.0447 HW       401 WAT      0.417000
   1315 O          26.5268   13.7917   19.4613 OW       402 WAT     -0.834000
   1316 H1         27.4542   13.6783   19.2532 HW       402 WAT      0.417000
   1317 H2         26.5173   14.4358   20.1693 HW       402 WAT      0.417000
   1318 O           7.1906   23.9273   13.7167 OW       403 WAT     -0.834000
   1319 H1          6.6574   24.4651   14.3022 HW       403 WAT      0.417000
   1320 H2          6.5543   23.4392   13.1940 HW       403 WAT      0.417000
   1321 O          17.4302   31.5720    2.8220 OW       404 WAT     -0.834000
   1322 H1         18.0247   31.4841    3.5670 HW       404 WAT      0.417000
   1323 H2         17.1040   32.4700    2.8805 HW       404 WAT      0.417000
   1324 O          27.7822   20.7421   23.3495 OW       405 WAT     -0.834000
   1325 H1         27.3291   21.5628   23.1564 HW       405 WAT      0.417000
   1326 H2         28.6996   20.9940   23.4549 HW       405 WAT      0.417000
   1327 O           4.8117   10.5018    7.9396 OW       406 WAT     -0.834000
   1328 H1          3.8932   10.5117    8.2086 HW       406 WAT      0.417000
   1329 H2          4.8545    9.8313    7.2578 HW       406 WAT      0.417000
   1330 O          24.2186   17.3364   45.1433 OW       407 WAT     -0.834000
   1331 H1         24.2404   16.7183   44.4127 HW       407 WAT      0.417000
   1332 H2         25.1314   17.5989   45.2622 HW       407 WAT      0.417000
   1333 O          12.1713    5.9192    3.6553 OW       408 WAT     -0.834000
   1334 H1         11.7474    6.7757    3.7084 HW       408 WAT      0.417000
   1335 H2         11.7285    5.4773    2.9308 HW       408 WAT      0.417000
   1336 O          26.5288   22.3291   13.8362 OW       409 WAT     -0.834000
   1337 H1         26.3999   23.0797   13.2563 HW       409 WAT      0.417000
   1338 H2         26.3305   21.5681   13.2905 HW       409 WAT      0.417000
   1339 O          17.0472   27.6382   41.7999 OW       410 WAT     -0.834000
   1340 H1         17.3173   27.4420   42.6970 HW       410 WAT      0.417000
   1341 H2         17.7002   28.2629   41.4843 HW       410 WAT      0.417000
   1342 O           7.3933   22.5245   17.8672 OW       411 WAT     -0.834000
   1343 H1          7.9135   21.7579   17.6262 HW       411 WAT      0.417000
   1344 H2          7.9709   23.0379   18.4320 HW       411 WAT      0.417000
   1345 O          20.7020   21.8052    5.1622 OW       412 WAT     -0.834000
   1346 H1         21.0698   21.9193    6.0385 HW       412 WAT      0.417000
   1347 H2         20.0224   21.1402    5.2723 HW       412 WAT      0.417000
   1348 O          15.1222    9.6937   23.3531 OW       413 WAT     -0.834000
   1349 H1         15.5612    9.4963   24.1804 HW       413 WAT      0.417000
   1350 H2         15.8055   10.0805   22.8057 HW       413 WAT      0.417000
   1351 O          11.3236   16.9447   13.7919 OW       414 WAT     -0.834000
   1352 H1         11.7610   16.7985   12.9532 HW       414 WAT      0.417000
   1353 H2         10.3946   17.0075   13.5699 HW       414 WAT      0.417000
   1354 O          13.4892   17.0573    3.9875 OW       415 WAT     -0.834000
   1355 H1         12.9748   17.5784    3.3709 HW       415 WAT      0.417000
   1356 H2         14.2212   16.7252    3.4678 HW       415 WAT      0.417000
   1357 O          10.6252   18.0029    4.9268 OW       416 WAT     -0.834000
   1358 H1         11.4017   17.6783    5.3826 HW       416 WAT      0.417000
   1359 H2         10.2498   17.2268    4.5107 HW       416 WAT      0.417000
   1360 O          21.8313   17.8191   16.8477 OW       417 WAT     -0.834000
   1361 H1         21.8810   17.1056   16.2115 HW       417 WAT      0.417000
   1362 H2         22.6766   17.7993   17.2963 HW       417 WAT      0.417000
   1363 O          34.5616   22.7161   38.3032 OW       418 WAT     -0.834000
   1364 H1         35.4278   22.7408   37.8965 HW       418 WAT      0.417000
   1365 H2         34.3754   21.7837   38.4137 HW       418 WAT      0.417000
   1366 O          33.5588   19.1919   49.3584 OW       419 WAT     -0.834000
   1367 H1         33.6396   18.5998   50.1061 HW       419 WAT      0.417000
   1368 H2         32.8786   18.7970   48.8127 HW       419 WAT      0.417000
   1369 O           0.7661   29.1049   50.9613 OW       420 WAT     -0.834000
   1370 H1          0.3807   28.5564   51.6445 HW       420 WAT      0.417000
   1371 H2          0.4859   29.9934   51.1810 HW       420 WAT      0.417000
   1372 O          13.0262   27.4648   30.6629 OW       421 WAT     -0.834000
   1373 H1         13.0238   26.9209   29.8753 HW       421 WAT      0.417000
   1374 H2         12.4850   26.9830   31.2884 HW       421 WAT      0.417000
   1375 O          12.5708   27.1770   37.6517 OW       422 WAT     -0.834000
   1376 H1         11.9877   27.5981   38.2833 HW       422 WAT      0.417000
   1377 H2         12.9913   27.9039   37.1923 HW       422 WAT      0.417000
   1378 O           9.2197    3.0553   13.9102 OW       423 WAT     -0.834000
   1379 H1          9.7361    3.8521   13.7890 HW       423 WAT      0.417000
   1380 H2          8.3469    3.2847   13.5910 HW       423 WAT      0.417000
   1381 O          33.0315   34.4568   12.9046 OW       424 WAT     -0.834000
   1382 H1         32.2144   34.3027   12.4304 HW       424 WAT      0.417000
   1383 H2         33.4771   33.6097   12.8954 HW       424 WAT      0.417000
   1384 O           5.7833    6.5708   14.0779 OW       425 WAT     -0.834000
   1385 H1          5.6193    7.4383   13.7082 HW       425 WAT      0.417000
   1386 H2          5.9847    6.7371   14.9988 HW       425 WAT      0.417000
   1387 O          22.8109   21.5561    3.6613 OW       426 WAT     -0.834000
   1388 H1         22.0395   21.6721    4.2161 HW       426 WAT      0.417000
   1389 H2         23.4432   22.1930    3.9941 HW       426 WAT      0.417000
   1390 O          16.3755    7.2715    1.0149 OW       427 WAT     -0.834000
   1391 H1         17.3206    7.1314    1.0722 HW       427 WAT      0.417000
   1392 H2         15.9933    6.5056    1.4433 HW       427 WAT      0.417000
   1393 O          36.1390    3.4709   37.5918 OW       428 WAT     -0.834000
   1394 H1         36.4507    2.9370   38.3226 HW       428 WAT      0.417000
   1395 H2         36.7308    3.2581   36.8702 HW       428 WAT      0.417000
   1396 O          29.1300   31.7219   40.5860 OW       429 WAT     -0.834000
   1397 H1         28.7182   32.0264   41.3947 HW       429 WAT      0.417000
   1398 H2         29.9024   31.2379   40.8781 HW       429 WAT      0.417000
   1399 O          24.2806    4.5892   40.2150 OW       430 WAT     -0.834000
   1400 H1         24.4113    5.4814   40.5362 HW       430 WAT      0.417000
   1401 H2         25.0254    4.0982   40.5619 HW       430 WAT      0.417000
   1402 O          28.7209    8.6780   18.1861 OW       431 WAT     -0.834000
   1403 H1         29.5329    8.7387   18.6893 HW       431 WAT      0.417000
   1404 H2         28.0798    9.1622   18.7065 HW       431 WAT      0.417000
   1405 O          28.3650    7.8939   25.6660 OW       432 WAT     -0.834000
   1406 H1         27.4646    7.6150   25.8325 HW       432 WAT      0.417000
   1407 H2         28.6416    8.3103   26.4823 HW       432 WAT      0.417000
   1408 O          34.2729   18.6292   13.8469 OW       433 WAT     -0.834000
   1409 H1         34.3671   18.1777   13.0081 HW       433 WAT      0.417000
   1410 H2         33.3277   18.6688   13.9927 HW       433 WAT      0.417000
   1411 O          26.0671   22.1288    7.6803 OW       434 WAT     -0.834000
   1412 H1         26.9694   22.0020    7.9733 HW       434 WAT      0.417000
   1413 H2         26.1300   22.7885    6.9896 HW       434 WAT      0.417000
   1414 O           4.6728    2.4493   27.6546 OW       435 WAT     -0.834000
   1415 H1          4.4480    2.6056   28.5718 HW       435 WAT      0.417000
   1416 H2          5.5957    2.6946   27.5889 HW       435 WAT      0.417000
   1417 O           2.7918   15.5132   12.5192 OW       436 WAT     -0.834000
   1418 H1          2.9103   16.4611   12.5799 HW       436 WAT      0.417000
   1419 H2          2.9619   15.1933   13.4052 HW       436 WAT      0.417000
   1420 O           5.0344   27.5417   36.4844 OW       437 WAT     -0.834000
   1421 H1          4.6813   26.7311   36.1176 HW       437 WAT      0.417000
   1422 H2          4.4951   27.7097   37.2572 HW       437 WAT      0.417000
   1423 O          27.4331   19.0335   10.4969 OW       438 WAT     -0.834000
   1424 H1         27.2007   19.2922   11.3887 HW       438 WAT      0.417000
   1425 H2         27.4634   19.8565   10.0089 HW       438 WAT      0.417000
   1426 O          22.8042    4.1249   37.3733 OW       439 WAT     -0.834000
   1427 H1         22.9069    3.8336   38.2793 HW       439 WAT      0.417000
   1428 H2         23.4833    4.7894   37.2569 HW       439 WAT      0.417000
   1429 O          14.4553    5.2761    1.8787 OW       440 WAT     -0.834000
   1430 H1         13.7010    5.3618    2.4616 HW       440 WAT      0.417000
   1431 H2         14.1987    4.5989    1.2528 HW       440 WAT      0.417000
   1432 O           3.8290   13.0762   16.7816 OW       441 WAT     -0.834000
   1433 H1          4.4700   12.4096   16.5346 HW       441 WAT      0.417000
   1434 H2          3.3748   12.7033   17.5372 HW       441 WAT      0.417000
   1435 O          18.4621    0.6380   27.5317 OW       442 WAT     -0.834000
   1436 H1         18.3188    0.6897   28.4767 HW       442 WAT      0.417000
   1437 H2         18.4460   -0.2992   27.3379 HW       442 WAT      0.417000
   1438 O          32.3206   36.8662    0.8663 OW       443 WAT     -0.834000
   1439 H1         32.8825   36.5636    0.1529 HW       443 WAT      0.417000
   1440 H2         32.6148   36.3696    1.6299 HW       443 WAT      0.417000
   1441 O          32.5908   13.9893    3.9315 OW       444 WAT     -0.834000
   1442 H1         32.2875   13.2937    3.3481 HW       444 WAT      0.417000
   1443 H2         32.4510   13.6414    4.8122 HW       444 WAT      0.417000
   1444 O          30.7146   17.7923   29.2478 OW       445 WAT     -0.834000
   1445 H1         31.0794   17.0337   28.7920 HW       445 WAT      0.417000
   1446 H2         30.2904   17.4247   30.0231 HW       445 WAT      0.417000
   1447 O           9.3202    9.5679   47.4209 OW       446 WAT     -0.834000
   1448 H1          9.2139    9.3714   48.3516 HW       446 WAT      0.417000
   1449 H2          8.4347    9.5123   47.0617 HW       446 WAT      0.417000
   1450 O          17.8744   34.5589   30.9674 OW       447 WAT     -0.834000
   1451 H1         17.6055   35.3628   30.5227 HW       447 WAT      0.417000
   1452 H2         17.0925   34.0068   30.9578 HW       447 WAT      0.417000
   1453 O           7.4945   15.7966   24.8560 OW       448 WAT     -0.834000
   1454 H1          8.0629   15.0288   24.7945 HW       448 WAT      0.417000
   1455 H2          6.6430   15.4898   24.5446 HW       448 WAT      0.417000
   1456 O          12.4569   21.9712   45.7487 OW       449 WAT     -0.834000
   1457 H1         12.0373   21.9442   44.8887 HW       449 WAT      0.417000
   1458 H2         12.1831   21.1587   46.1744 HW       449 WAT      0.417000
   1459 O          18.2302    4.1479   43.8106 OW       450 WAT     -0.834000
   1460 H1         18.3112    5.0650   43.5487 HW       450 WAT      0.417000
   1461 H2         19.0371    3.7377   43.4993 HW       450 WAT      0.417000
   1462 O          10.8008   16.9803    8.6948 OW       451 WAT     -0.834000
   1463 H1         11.1133   17.1655    7.8092 HW       451 WAT      0.417000
   1464 H2          9.8735   16.7708    8.5826 HW       451 WAT      0.417000
   1465 O          14.1041   11.6784   50.8282 OW       452 WAT     -0.834000
   1466 H1         13.3135   12.1765   50.6207 HW       452 WAT      0.417000
   1467 H2         13.8152   11.0248   51.4651 HW       452 WAT      0.417000
   1468 O          22.9055   19.4323    1.7199 OW       453 WAT     -0.834000
   1469 H1         22.0639   18.9815    1.7876 HW       453 WAT      0.417000
   1470 H2         22.8199   20.1880    2.3012 HW       453 WAT      0.417000
   1471 O          22.5904   12.3237   35.6404 OW       454 WAT     -0.834000
   1472 H1         23.5277   12.1751   35.7658 HW       454 WAT      0.417000
   1473 H2         22.4399   13.2053   35.9815 HW       454 WAT      0.417000
   1474 O           7.0135   28.9535   16.8580 OW       455 WAT     -0.834000
   1475 H1          7.3715   28.4807   17.6093 HW       455 WAT      0.417000
   1476 H2          6.1417   29.2289   17.1415 HW       455 WAT      0.417000
   1477 O           9.4069   25.8719   47.0732 OW       456 WAT     -0.834000
   1478 H1          9.8659   26.1402   47.8691 HW       456 WAT      0.417000
   1479 H2          9.9212   25.1385   46.7357 HW       456 WAT      0.417000
   1480 O           5.4341   25.3280   50.5526 OW       457 WAT     -0.834000
   1481 H1          6.2286   25.0189   50.1174 HW       457 WAT      0.417000
   1482 H2          4.9817   25.8453   49.8862 HW       457 WAT      0.417000
   1483 O          29.7201    0.1235    2.6489 OW       458 WAT     -0.834000
   1484 H1         30.3023    0.1636    1.8902 HW       458 WAT      0.417000
   1485 H2         30.1912    0.5927    3.3374 HW       458 WAT      0.417000
   1486 O          16.8383   30.7798   39.5324 OW       459 WAT     -0.834000
   1487 H1         16.8790   31.6368   39.1079 HW       459 WAT      0.417000
   1488 H2         17.6171   30.7505   40.0881 HW       459 WAT      0.417000
   1489 O          15.5612   10.8865    8.2760 OW       460 WAT     -0.834000
   1490 H1         16.5162   10.8604    8.2161 HW       460 WAT      0.417000
   1491 H2         15.3832   11.0179    9.2073 HW       460 WAT      0.417000
   1492 O           8.3771    8.0297   12.6897 OW       461 WAT     -0.834000
   1493 H1          8.8053    8.8807   12.7828 HW       461 WAT      0.417000
   1494 H2          7.4441    8.2189   12.7895 HW       461 WAT      0.417000
   1495 O          14.8376    8.4543   50.7024 OW       462 WAT     -0.834000
   1496 H1         15.3956    8.0736   51.3807 HW       462 WAT      0.417000
   1497 H2         14.2760    9.0707   51.1724 HW       462 WAT      0.417000
   1498 O          10.6090   32.6573   30.0705 OW       463 WAT     -0.834000
   1499 H1         11.0314   33.3305   30.6039 HW       463 WAT      0.417000
   1500 H2         10.8024   31.8365   30.5234 HW       463 WAT      0.417000
   1501 O          31.3509   16.0952   37.9569 OW       464 WAT     -0.834000
   1502 H1         31.8096   16.6257   38.6084 HW       464 WAT      0.417000
   1503 H2         31.1703   15.2689   38.4050 HW       464 WAT      0.417000
   1504 O          30.6633   26.0872    0.3664 OW       465 WAT     -0.834000
   1505 H1         30.4710   25.2799    0.8434 HW       465 WAT      0.417000
   1506 H2         31.5436   25.9538    0.0149 HW       465 WAT      0.417000
   1507 O          11.6469    6.3825   23.7736 OW       466 WAT     -0.834000
   1508 H1         11.0265    5.9015   23.2260 HW       466 WAT      0.417000
   1509 H2         11.6745    5.8898   24.5938 HW       466 WAT      0.417000
   1510 O          30.2199    6.0891   25.2137 OW       467 WAT     -0.834000
   1511 H1         29.6184    6.7128   25.6204 HW       467 WAT      0.417000
   1512 H2         30.6526    6.5897   24.5220 HW       467 WAT      0.417000
   1513 O           8.4344   18.1940   25.7470 OW       468 WAT     -0.834000
   1514 H1          8.0883   17.3338   25.5093 HW       468 WAT      0.417000
   1515 H2          9.3563   18.0337   25.9488 HW       468 WAT      0.417000
   1516 O          23.5232   10.5816   15.1750 OW       469 WAT     -0.834000
   1517 H1         24.1017   10.9946   14.5340 HW       469 WAT      0.417000
   1518 H2         23.1644   11.3119   15.6793 HW       469 WAT      0.417000
   1519 O          10.9428    8.1561    0.2096 OW       470 WAT     -0.834000
   1520 H1         10.3196    8.5869   -0.3754 HW       470 WAT      0.417000
   1521 H2         10.4100    7.5465    0.7202 HW       470 WAT      0.417000
   1522 O          35.5716   21.3267   35.0749 OW       471 WAT     -0.834000
   1523 H1         36.4097   21.3491   34.6132 HW       471 WAT      0.417000
   1524 H2         35.2790   20.4187   34.9963 HW       471 WAT      0.417000
   1525 O          13.5003    2.4931    6.2219 OW       472 WAT     -0.834000
   1526 H1         14.0334    1.7604    5.9132 HW       472 WAT      0.417000
   1527 H2         12.6330    2.3315    5.8505 HW       472 WAT      0.417000
   1528 O          19.6839   10.6078   35.5798 OW       473 WAT     -0.834000
   1529 H1         20.5436   11.0283   35.5593 HW       473 WAT      0.417000
   1530 H2         19.8728    9.6843   35.7462 HW       473 WAT      0.417000
   1531 O          14.9928   34.1270    0.9074 OW       474 WAT     -0.834000
   1532 H1         14.8921   33.1981    0.6994 HW       474 WAT      0.417000
   1533 H2         15.7859   34.1682    1.4417 HW       474 WAT      0.417000
   1534 O          -0.1583   28.5552   48.3368 OW       475 WAT     -0.834000
   1535 H1          0.4704   29.1561   47.9369 HW       475 WAT      0.417000
   1536 H2          0.2141   28.3555   49.1956 HW       475 WAT      0.417000
   1537 O          21.9371   18.3280   49.6969 OW       476 WAT     -0.834000
   1538 H1         21.7847   17.5566   50.2428 HW       476 WAT      0.417000
   1539 H2         22.7456   18.1306   49.2239 HW       476 WAT      0.417000
   1540 O          16.2183    7.7372    8.8140 OW       477 WAT     -0.834000
   1541 H1         17.1445    7.9214    8.6578 HW       477 WAT      0.417000
   1542 H2         15.7770    8.5701    8.6472 HW       477 WAT      0.417000
   1543 O           3.9102   34.8758    7.1062 OW       478 WAT     -0.834000
   1544 H1          4.7782   35.2726    7.0335 HW       478 WAT      0.417000
   1545 H2          4.0555   33.9471    6.9251 HW       478 WAT      0.417000
   1546 O          31.8647    8.5502   44.2894 OW       479 WAT     -0.834000
   1547 H1         31.8877    8.0917   45.1293 HW       479 WAT      0.417000
   1548 H2         31.2642    9.2818   44.4323 HW       479 WAT      0.417000
   1549 O          18.4320    6.8572   42.8535 OW       480 WAT     -0.834000
   1550 H1         19.1847    7.3179   43.2244 HW       480 WAT      0.417000
   1551 H2         18.3932    7.1547   41.9446 HW       480 WAT      0.417000
   1552 O          16.0956    3.2737   30.8644 OW       481 WAT     -0.834000
   1553 H1         15.1597    3.2540   30.6648 HW       481 WAT      0.417000
   1554 H2         16.1401    3.1711   31.8150 HW       481 WAT      0.417000
   1555 O           6.2524    1.9719   42.8439 OW       482 WAT     -0.834000
   1556 H1          5.6639    2.7221   42.9278 HW       482 WAT      0.417000
   1557 H2          5.6786    1.2087   42.9110 HW       482 WAT      0.417000
   1558 O          23.0866   28.6032   13.2266 OW       483 WAT     -0.834000
   1559 H1         23.6421   28.4961   13.9987 HW       483 WAT      0.417000
   1560 H2         22.1982   28.6651   13.5774 HW       483 WAT      0.417000
   1561 O          30.6258   27.1449    3.1463 OW       484 WAT     -0.834000
   1562 H1         30.7851   26.8332    2.2554 HW       484 WAT      0.417000
   1563 H2         29.8219   27.6602    3.0796 HW       484 WAT      0.417000
   1564 O           3.4108   11.5494    2.9596 OW       485 WAT     -0.834000
   1565 H1          2.7200   11.5003    2.2988 HW       485 WAT      0.417000
   1566 H2          3.0091   12.0174    3.6916 HW       485 WAT      0.417000
   1567 O          18.4258   13.3459   18.9139 OW       486 WAT     -0.834000
   1568 H1         19.1319   12.8480   19.3260 HW       486 WAT      0.417000
   1569 H2         18.7340   14.2521   18.9243 HW       486 WAT      0.417000
   1570 O          26.9553   35.2673   48.7951 OW       487 WAT     -0.834000
   1571 H1         26.1341   34.7776   48.8384 HW       487 WAT      0.417000
   1572 H2         27.1604   35.3090   47.8610 HW       487 WAT      0.417000
   1573 O          33.0476    4.1482   19.2620 OW       488 WAT     -0.834000
   1574 H1         33.1695    3.3407   19.7614 HW       488 WAT      0.417000
   1575 H2         32.9552    3.8572   18.3548 HW       488 WAT      0.417000
   1576 O           1.9196    6.8269   24.6070 OW       489 WAT     -0.834000
   1577 H1          2.6775    7.3778   24.8033 HW       489 WAT      0.417000
   1578 H2          2.1196    5.9878   25.0217 HW       489 WAT      0.417000
   1579 O          29.6439    8.8198   28.1783 OW       490 WAT     -0.834000
   1580 H1         30.2796    8.1049   28.1446 HW       490 WAT      0.417000
   1581 H2         29.2244    8.7271   29.0336 HW       490 WAT      0.417000
   1582 O           3.5001   30.0792   26.8888 OW       491 WAT     -0.834000
   1583 H1          2.9919   30.8882   26.8286 HW       491 WAT      0.417000
   1584 H2          4.3369   30.2908   26.4751 HW       491 WAT      0.417000
   1585 O          36.3909   10.7081   30.7652 OW       492 WAT     -0.834000
   1586 H1         36.2267   11.5889   30.4283 HW       492 WAT      0.417000
   1587 H2         35.9424   10.1287   30.1494 HW       492 WAT      0.417000
   1588 O          29.3565   34.0410   21.4726 OW       493 WAT     -0.834000
   1589 H1         29.4236   34.0273   22.4274 HW       493 WAT      0.417000
   1590 H2         29.9643   33.3618   21.1801 HW       493 WAT      0.417000
   1591 O          13.5238   10.6442   18.3966 OW       494 WAT     -0.834000
   1592 H1         14.3992   10.3986   18.6958 HW       494 WAT      0.417000
   1593 H2         13.4829   11.5915   18.5274 HW       494 WAT      0.417000
   1594 O           6.4169   21.4565    8.1341 OW       495 WAT     -0.834000
   1595 H1          5.7825   21.8437    7.5309 HW       495 WAT      0.417000
   1596 H2          6.9278   22.2000    8.4541 HW       495 WAT      0.417000
   1597 O          27.0560    3.2004   40.1265 OW       496 WAT     -0.834000
   1598 H1         27.9991    3.3153   40.0104 HW       496 WAT      0.417000
   1599 H2         26.9167    3.2998   41.0683 HW       496 WAT      0.417000
   1600 O          26.3942   15.8702   50.5802 OW       497 WAT     -0.834000
   1601 H1         26.7830   15.2444   51.1913 HW       497 WAT      0.417000
   1602 H2         25.6314   16.2155   51.0440 HW       497 WAT      0.417000
   1603 O          27.2568   13.2036   12.4315 OW       498 WAT     -0.834000
   1604 H1         27.7471   12.3909   12.3080 HW       498 WAT      0.417000
   1605 H2         27.8664   13.7842   12.8871 HW       498 WAT      0.417000
   1606 O           3.5119   15.5272   47.5936 OW       499 WAT     -0.834000
   1607 H1          4.3899   15.9011   47.5202 HW       499 WAT      0.417000
   1608 H2          2.9413   16.1716   47.1747 HW       499 WAT      0.417000
   1609 O           3.5969   12.7865   42.2753 OW       500 WAT     -0.834000
   1610 H1          3.7594   12.1700   42.9893 HW       500 WAT      0.417000
   1611 H2          3.1414   13.5190   42.6903 HW       500 WAT      0.417000
   1612 O           0.7969    0.7186   11.3788 OW       501 WAT     -0.834000
   1613 H1          0.8345    1.1345   10.5175 HW       501 WAT      0.417000
   1614 H2          0.4271    1.3894   11.9528 HW       501 WAT      0.417000
   1615 O          11.4409   10.0240    9.5645 OW       502 WAT     -0.834000
   1616 H1         11.8450   10.8649    9.7788 HW       502 WAT      0.417000
   1617 H2         11.5701    9.9298    8.6207 HW       502 WAT      0.417000
   1618 O          21.2725   33.6481    3.5018 OW       503 WAT     -0.834000
   1619 H1         21.6139   34.3877    4.0045 HW       503 WAT      0.417000
   1620 H2         21.0166   34.0277    2.6611 HW       503 WAT      0.417000
   1621 O          25.0505   25.4352    8.0703 OW       504 WAT     -0.834000
   1622 H1         24.1198   25.6026    7.9217 HW       504 WAT      0.417000
   1623 H2         25.0895   24.5153    8.3319 HW       504 WAT      0.417000
   1624 O          10.7774    7.3588   40.0678 OW       505 WAT     -0.834000
   1625 H1         11.4858    7.4081   40.7096 HW       505 WAT      0.417000
   1626 H2         10.0873    7.9148   40.4295 HW       505 WAT      0.417000
   1627 O           9.6989   36.4204   47.4458 OW       506 WAT     -0.834000
   1628 H1         10.3156   36.7854   46.8111 HW       506 WAT      0.417000
   1629 H2          9.0549   35.9540   46.9129 HW       506 WAT      0.417000
   1630 O          15.4982   35.8225   32.7485 OW       507 WAT     -0.834000
   1631 H1         16.3163   35.5360   33.1544 HW       507 WAT      0.417000
   1632 H2         15.3819   36.7224   33.0533 HW       507 WAT      0.417000
   1633 O          10.8556   30.2993   10.2328 OW       508 WAT     -0.834000
   1634 H1         10.1187   30.0482   10.7897 HW       508 WAT      0.417000
   1635 H2         10.9416   29.5779    9.6096 HW       508 WAT      0.417000
   1636 O          32.1386   19.8137   28.0811 OW       509 WAT     -0.834000
   1637 H1         31.4481   20.4646   28.2067 HW       509 WAT      0.417000
   1638 H2         31.9571   19.1421   28.7385 HW       509 WAT      0.417000
   1639 O          35.4528   34.8868   20.4588 OW       510 WAT     -0.834000
   1640 H1         36.2045   35.4512   20.6390 HW       510 WAT      0.417000
   1641 H2         35.6029   34.1091   20.9962 HW       510 WAT      0.417000
   1642 O          21.1059    1.6311   31.7230 OW       511 WAT     -0.834000
   1643 H1         21.6640    2.3324   32.0590 HW       511 WAT      0.417000
   1644 H2         20.3362    2.0826   31.3768 HW       511 WAT      0.417000
   1645 O           2.8431    4.3470   49.1277 OW       512 WAT     -0.834000
   1646 H1          2.3218    3.6079   49.4411 HW       512 WAT      0.417000
   1647 H2          3.3529    3.9894   48.4008 HW       512 WAT      0.417000
   1648 O          20.1311   14.2426   23.5245 OW       513 WAT     -0.834000
   1649 H1         20.7148   14.7978   23.0074 HW       513 WAT      0.417000
   1650 H2         20.4333   14.3517   24.4261 HW       513 WAT      0.417000
   1651 O          10.4704   23.1531   31.8968 OW       514 WAT     -0.834000
   1652 H1         11.1159   22.5430   31.5400 HW       514 WAT      0.417000
   1653 H2         10.1493   22.7250   32.6904 HW       514 WAT      0.417000
   1654 O           3.3152   36.4004   30.9216 OW       515 WAT     -0.834000
   1655 H1          2.9326   36.8561   30.1719 HW       515 WAT      0.417000
   1656 H2          2.6126   35.8350   31.2423 HW       515 WAT      0.417000
   1657 O          35.4819   33.8260   34.0317 OW       516 WAT     -0.834000
   1658 H1         35.6055   34.6144   33.5032 HW       516 WAT      0.417000
   1659 H2         36.2153   33.2595   33.7919 HW       516 WAT      0.417000
   1660 O           2.0152   25.4171   44.8934 OW       517 WAT     -0.834000
   1661 H1          2.8052   25.7447   45.3232 HW       517 WAT      0.417000
   1662 H2          1.7055   24.7145   45.4649 HW       517 WAT      0.417000
   1663 O          24.7170   28.6074   38.5077 OW       518 WAT     -0.834000
   1664 H1         23.8464   28.5417   38.1153 HW       518 WAT      0.417000
   1665 H2         24.8715   27.7451   38.8935 HW       518 WAT      0.417000
   1666 O          34.9040   31.4219    3.0024 OW       519 WAT     -0.834000
   1667 H1         35.8597   31.4237    2.9473 HW       519 WAT      0.417000
   1668 H2         34.7138   31.0196    3.8499 HW       519 WAT      0.417000
   1669 O           2.3962   36.9573   34.0903 OW       520 WAT     -0.834000
   1670 H1          3.1126   36.9576   34.7251 HW       520 WAT      0.417000
   1671 H2          2.3245   36.0447   33.8104 HW       520 WAT      0.417000
   1672 O          18.5088   31.5403   46.2420 OW       521 WAT     -0.834000
   1673 H1         18.4628   31.0433   47.0587 HW       521 WAT      0.417000
   1674 H2         18.2085   32.4179   46.4784 HW       521 WAT      0.417000
   1675 O          20.2671   30.5053   51.4629 OW       522 WAT     -0.834000
   1676 H1         20.7098   29.6737   51.6320 HW       522 WAT      0.417000
   1677 H2         20.9737   31.1126   51.2436 HW       522 WAT      0.417000
   1678 O           1.5962    0.8814    8.5944 OW       523 WAT     -0.834000
   1679 H1          2.4604    1.0225    8.2078 HW       523 WAT      0.417000
   1680 H2          1.1148    1.6869    8.4054 HW       523 WAT      0.417000
   1681 O          22.1322   28.8718   36.9882 OW       524 WAT     -0.834000
   1682 H1         22.0869   27.9780   36.6487 HW       524 WAT      0.417000
   1683 H2         21.5566   29.3760   36.4132 HW       524 WAT      0.417000
   1684 O          26.9911    7.3210   46.1906 OW       525 WAT     -0.834000
   1685 H1         27.7731    6.8525   46.4824 HW       525 WAT      0.417000
   1686 H2         26.4286    7.3534   46.9645 HW       525 WAT      0.417000
   1687 O           9.7331   10.4940   35.3214 OW       526 WAT     -0.834000
   1688 H1         10.1402   10.2397   34.4932 HW       526 WAT      0.417000
   1689 H2          8.9756    9.9147   35.4038 HW       526 WAT      0.417000
   1690 O          36.1692   13.4107   44.1128 OW       527 WAT     -0.834000
   1691 H1         36.9424   13.7606   43.6700 HW       527 WAT      0.417000
   1692 H2         36.2738   12.4606   44.0623 HW       527 WAT      0.417000
   1693 O          16.7219   36.1300   49.0915 OW       528 WAT     -0.834000
   1694 H1         17.4623   35.6969   48.6667 HW       528 WAT      0.417000
   1695 H2         16.2113   35.4146   49.4706 HW       528 WAT      0.417000
   1696 O          23.5131   15.9437   12.2917 OW       529 WAT     -0.834000
   1697 H1         22.7587   16.0921   11.7216 HW       529 WAT      0.417000
   1698 H2         24.1322   16.6341   12.0544 HW       529 WAT      0.417000
   1699 O          35.0065   13.2973   16.6406 OW       530 WAT     -0.834000
   1700 H1         34.4521   13.5324   17.3846 HW       530 WAT      0.417000
   1701 H2         34.7100   13.8675   15.9313 HW       530 WAT      0.417000
   1702 O          26.2112    3.8648   11.8021 OW       531 WAT     -0.834000
   1703 H1         25.3588    3.6778   11.4088 HW       531 WAT      0.417000
   1704 H2         26.3797    4.7815   11.5841 HW       531 WAT      0.417000
   1705 O          34.0487   13.6185   26.1499 OW       532 WAT     -0.834000
   1706 H1         33.7990   12.7371   25.8724 HW       532 WAT      0.417000
   1707 H2         33.7033   13.6965   27.0392 HW       532 WAT      0.417000
   1708 O          11.9796   33.7333   43.3950 OW       533 WAT     -0.834000
   1709 H1         12.5776   33.6848   42.6492 HW       533 WAT      0.417000
   1710 H2         11.3414   33.0379   43.2360 HW       533 WAT      0.417000
   1711 O          28.7015    9.2845   50.6472 OW       534 WAT     -0.834000
   1712 H1         28.1284    9.3304   49.8820 HW       534 WAT      0.417000
   1713 H2         28.5264    8.4231   51.0263 HW       534 WAT      0.417000
   1714 O          16.3414    2.0900   38.6227 OW       535 WAT     -0.834000
   1715 H1         15.3984    2.2070   38.5073 HW       535 WAT      0.417000
   1716 H2         16.6747    2.9734   38.7802 HW       535 WAT      0.417000
   1717 O           6.4329   11.1615   47.8841 OW       536 WAT     -0.834000
   1718 H1          5.9079   10.6021   48.4565 HW       536 WAT      0.417000
   1719 H2          5.7973   11.7478   47.4736 HW       536 WAT      0.417000
   1720 O          18.5398   33.3696    8.3642 OW       537 WAT     -0.834000
   1721 H1         18.2875   32.5033    8.0446 HW       537 WAT      0.417000
   1722 H2         19.2383   33.6491    7.7725 HW       537 WAT      0.417000
   1723 O          14.1792    0.6164   28.9522 OW       538 WAT     -0.834000
   1724 H1         14.0539   -0.1405   28.3798 HW       538 WAT      0.417000
   1725 H2         13.7825    0.3563   29.7836 HW       538 WAT      0.417000
   1726 O          32.9745    7.9757   14.8146 OW       539 WAT     -0.834000
   1727 H1         32.6745    7.1423   14.4517 HW       539 WAT      0.417000
   1728 H2         33.9274    7.9451   14.7287 HW       539 WAT      0.417000
   1729 O          33.3458   13.7384   29.8748 OW       540 WAT     -0.834000
   1730 H1         32.8677   14.1713   30.5821 HW       540 WAT      0.417000
   1731 H2         33.4733   12.8420   30.1855 HW       540 WAT      0.417000
   1732 O          18.9301   10.5164   11.5099 OW       541 WAT     -0.834000
   1733 H1         18.0989   10.1647   11.8288 HW       541 WAT      0.417000
   1734 H2         18.8261   10.5517   10.5590 HW       541 WAT      0.417000
   1735 O          28.0683   12.0591   32.3049 OW       542 WAT     -0.834000
   1736 H1         28.4244   12.6584   31.6490 HW       542 WAT      0.417000
   1737 H2         27.1200   12.1743   32.2448 HW       542 WAT      0.417000
   1738 O          21.3993    8.3449   35.7943 OW       543 WAT     -0.834000
   1739 H1         21.0396    8.0027   34.9759 HW       543 WAT      0.417000
   1740 H2         22.2935    8.6048   35.5727 HW       543 WAT      0.417000
   1741 O          31.0150   28.5268   39.5228 OW       544 WAT     -0.834000
   1742 H1         30.1221   28.8593   39.4312 HW       544 WAT      0.417000
   1743 H2         31.0870   28.2850   40.4462 HW       544 WAT      0.417000
   1744 O          17.8296   15.2071    1.1065 OW       545 WAT     -0.834000
   1745 H1         17.3793   15.6127    1.8474 HW       545 WAT      0.417000
   1746 H2         17.1481   15.0962    0.4436 HW       545 WAT      0.417000
   1747 O          10.5973   10.1782   40.5944 OW       546 WAT     -0.834000
   1748 H1         10.8304   11.1038   40.6655 HW       546 WAT      0.417000
   1749 H2          9.7003   10.1820   40.2604 HW       546 WAT      0.417000
   1750 O          15.0950   19.5259    4.0218 OW       547 WAT     -0.834000
   1751 H1         14.4909   18.8069    3.8367 HW       547 WAT      0.417000
   1752 H2         14.5695   20.3170    3.9024 HW       547 WAT      0.417000
   1753 O          11.8941   11.7802   13.4433 OW       548 WAT     -0.834000
   1754 H1         12.7901   11.5394   13.6790 HW       548 WAT      0.417000
   1755 H2         11.9936   12.5377   12.8666 HW       548 WAT      0.417000
   1756 O          10.1783   19.6511   12.2729 OW       549 WAT     -0.834000
   1757 H1          9.7494   20.4042   12.6793 HW       549 WAT      0.417000
   1758 H2          9.7243   18.8914   12.6374 HW       549 WAT      0.417000
   1759 O          18.4018   22.9209   14.6621 OW       550 WAT     -0.834000
   1760 H1         17.4835   23.1694   14.7679 HW       550 WAT      0.417000
   1761 H2         18.4546   22.5723   13.7722 HW       550 WAT      0.417000
   1762 O          32.5536   32.3356    9.9694 OW       551 WAT     -0.834000
   1763 H1         31.7891   32.4104    9.3983 HW       551 WAT      0.417000
   1764 H2         33.0580   33.1313    9.7997 HW       551 WAT      0.417000
   1765 O          13.1100   28.0217   45.8136 OW       552 WAT     -0.834000
   1766 H1         12.1775   27.9134   45.6269 HW       552 WAT      0.417000
   1767 H2         13.2884   28.9414   45.6173 HW       552 WAT      0.417000
   1768 O          32.9837   23.1340   10.6321 OW       553 WAT     -0.834000
   1769 H1         33.2841   23.1116    9.7235 HW       553 WAT      0.417000
   1770 H2         33.7242   22.7987   11.1375 HW       553 WAT      0.417000
   1771 O          34.3172   28.8783   23.4380 OW       554 WAT     -0.834000
   1772 H1         34.9542   28.1691   23.3508 HW       554 WAT      0.417000
   1773 H2         34.5998   29.3599   24.2154 HW       554 WAT      0.417000
   1774 O          36.0078   19.3031    4.4951 OW       555 WAT     -0.834000
   1775 H1         36.4764   18.5532    4.8614 HW       555 WAT      0.417000
   1776 H2         36.3722   20.0604    4.9534 HW       555 WAT      0.417000
   1777 O           8.4621   31.9471   25.0664 OW       556 WAT     -0.834000
   1778 H1          8.9927   32.2791   24.3422 HW       556 WAT      0.417000
   1779 H2          8.6179   31.0027   25.0641 HW       556 WAT      0.417000
   1780 O          23.7088   15.1362   40.0803 OW       557 WAT     -0.834000
   1781 H1         23.6309   14.3433   40.6108 HW       557 WAT      0.417000
   1782 H2         24.0402   15.7986   40.6867 HW       557 WAT      0.417000
   1783 O          14.4118   21.1921    6.9625 OW       558 WAT     -0.834000
   1784 H1         14.8169   21.1799    6.0954 HW       558 WAT      0.417000
   1785 H2         14.6435   20.3468    7.3471 HW       558 WAT      0.417000
   1786 O           9.8686   32.4560   13.0056 OW       559 WAT     -0.834000
   1787 H1          9.1629   32.8460   12.4898 HW       559 WAT      0.417000
   1788 H2         10.6556   32.5957   12.4791 HW       559 WAT      0.417000
   1789 O           9.7493   23.1434    3.1632 OW       560 WAT     -0.834000
   1790 H1          9.2516   23.0942    2.3470 HW       560 WAT      0.417000
   1791 H2          9.8864   22.2302    3.4155 HW       560 WAT      0.417000
   1792 O           3.7448    6.5761   40.1101 OW       561 WAT     -0.834000
   1793 H1          4.3138    5.8566   39.8367 HW       561 WAT      0.417000
   1794 H2          3.8494    7.2374   39.4260 HW       561 WAT      0.417000
   1795 O          33.9649    5.1556   11.7043 OW       562 WAT     -0.834000
   1796 H1         33.5926    4.3872   12.1369 HW       562 WAT      0.417000
   1797 H2         34.8989    4.9595   11.6299 HW       562 WAT      0.417000
   1798 O          31.1280   23.8884   14.4173 OW       563 WAT     -0.834000
   1799 H1         30.9262   24.3912   15.2064 HW       563 WAT      0.417000
   1800 H2         31.5314   23.0836   14.7426 HW       563 WAT      0.417000
   1801 O          14.6535    7.2772   17.5249 OW       564 WAT     -0.834000
   1802 H1         14.7249    7.1984   18.4762 HW       564 WAT      0.417000
   1803 H2         15.0799    8.1096   17.3209 HW       564 WAT      0.417000
   1804 O          34.3169   32.3625   30.6982 OW       565 WAT     -0.834000
   1805 H1         33.5483   32.3546   30.1279 HW       565 WAT      0.417000
   1806 H2         34.5632   33.2857   30.7555 HW       565 WAT      0.417000
   1807 O          25.7225   18.2018    3.3579 OW       566 WAT     -0.834000
   1808 H1         25.4113   17.8855    2.5097 HW       566 WAT      0.417000
   1809 H2         26.3944   17.5711    3.6168 HW       566 WAT      0.417000
   1810 O          31.1228   26.8503    7.4753 OW       567 WAT     -0.834000
   1811 H1         31.4525   27.7104    7.7356 HW       567 WAT      0.417000
   1812 H2         31.2787   26.2932    8.2379 HW       567 WAT      0.417000
   1813 O           8.1087   26.8767   33.9234 OW       568 WAT     -0.834000
   1814 H1          7.6558   26.1306   34.3166 HW       568 WAT      0.417000
   1815 H2          8.3323   26.5828   33.0403 HW       568 WAT      0.417000
   1816 O          21.7511   14.7564   14.2110 OW       569 WAT     -0.834000
   1817 H1         22.6330   14.9079   13.8711 HW       569 WAT      0.417000
   1818 H2         21.3534   14.1521   13.5842 HW       569 WAT      0.417000
   1819 O           0.4496   16.8185   21.8451 OW       570 WAT     -0.834000
   1820 H1          0.9919   17.1581   21.1332 HW       570 WAT      0.417000
   1821 H2          0.3036   17.5729   22.4158 HW       570 WAT      0.417000
   1822 O          34.5026   15.3573   32.7291 OW       571 WAT     -0.834000
   1823 H1         35.4101   15.2700   32.4376 HW       571 WAT      0.417000
   1824 H2         34.1145   15.9849   32.1193 HW       571 WAT      0.417000
   1825 O          13.2168   20.4182   39.1153 OW       572 WAT     -0.834000
   1826 H1         14.0737   20.1137   39.4142 HW       572 WAT      0.417000
   1827 H2         12.6830   20.4485   39.9093 HW       572 WAT      0.417000
   1828 O          13.1266   30.2510    5.0440 OW       573 WAT     -0.834000
   1829 H1         13.0258   30.3501    4.0973 HW       573 WAT      0.417000
   1830 H2         12.6134   29.4723    5.2593 HW       573 WAT      0.417000
   1831 O          18.0752   10.9418   37.8877 OW       574 WAT     -0.834000
   1832 H1         17.1757   10.6459   37.7481 HW       574 WAT      0.417000
   1833 H2         18.5220   10.7472   37.0638 HW       574 WAT      0.417000
   1834 O          29.1737   34.9120   38.6104 OW       575 WAT     -0.834000
   1835 H1         29.3869   33.9978   38.4234 HW       575 WAT      0.417000
   1836 H2         28.4347   34.8663   39.2171 HW       575 WAT      0.417000
   1837 O          -0.2748   25.7212   47.2553 OW       576 WAT     -0.834000
   1838 H1          0.1960   26.1346   47.9790 HW       576 WAT      0.417000
   1839 H2          0.2123   24.9157   47.0817 HW       576 WAT      0.417000
   1840 O          13.0437   31.2449    2.1477 OW       577 WAT     -0.834000
   1841 H1         12.9303   32.1386    2.4712 HW       577 WAT      0.417000
   1842 H2         13.4539   31.3510    1.2894 HW       577 WAT      0.417000
   1843 O           0.4793   30.2954   34.7196 OW       578 WAT     -0.834000
   1844 H1          0.8833   30.4314   35.5766 HW       578 WAT      0.417000
   1845 H2         -0.4448   30.5055   34.8544 HW       578 WAT      0.417000
   1846 O          35.9547   18.8334   47.5795 OW       579 WAT     -0.834000
   1847 H1         36.0383   19.0075   48.5170 HW       579 WAT      0.417000
   1848 H2         35.1549   19.2915   47.3212 HW       579 WAT      0.417000
   1849 O          36.1554   23.3992   23.8857 OW       580 WAT     -0.834000
   1850 H1         35.7321   24.0315   24.4664 HW       580 WAT      0.417000
   1851 H2         35.6567   23.4514   23.0704 HW       580 WAT      0.417000
   1852 O          10.2736   16.4559   19.5904 OW       581 WAT     -0.834000
   1853 H1         11.2244   16.4544   19.4797 HW       581 WAT      0.417000
   1854 H2         10.0070   15.5602   19.3834 HW       581 WAT      0.417000
   1855 O           0.6821   14.0447   11.9020 OW       582 WAT     -0.834000
   1856 H1          0.7585   13.2892   12.4848 HW       582 WAT      0.417000
   1857 H2          1.5278   14.4876   11.9720 HW       582 WAT      0.417000
   1858 O          32.8780   35.2418   41.6124 OW       583 WAT     -0.834000
   1859 H1         32.0740   34.9078   42.0102 HW       583 WAT      0.417000
   1860 H2         32.6539   35.3700   40.6907 HW       583 WAT      0.417000
   1861 O          24.8005   10.1906   43.5919 OW       584 WAT     -0.834000
   1862 H1         25.6087   10.0018   43.1151 HW       584 WAT      0.417000
   1863 H2         24.9130   11.0869   43.9084 HW       584 WAT      0.417000
   1864 O          16.2630    2.7200    2.9490 OW       585 WAT     -0.834000
   1865 H1         15.3289    2.5699    3.0950 HW       585 WAT      0.417000
   1866 H2         16.3059    3.5863    2.5440 HW       585 WAT      0.417000
   1867 O          32.0324   12.2035   36.7130 OW       586 WAT     -0.834000
   1868 H1         32.5674   12.0578   37.4932 HW       586 WAT      0.417000
   1869 H2         32.6656   12.2796   35.9992 HW       586 WAT      0.417000
   1870 O          17.4166    4.3304   27.9386 OW       587 WAT     -0.834000
   1871 H1         18.2083    3.8117   27.7960 HW       587 WAT      0.417000
   1872 H2         16.7008    3.6985   27.8714 HW       587 WAT      0.417000
   1873 O          22.3924   33.8826   27.3109 OW       588 WAT     -0.834000
   1874 H1         22.2972   33.9391   28.2617 HW       588 WAT      0.417000
   1875 H2         22.4695   32.9452   27.1332 HW       588 WAT      0.417000
   1876 O          29.5000   23.8255   47.3394 OW       589 WAT     -0.834000
   1877 H1         28.7985   24.2662   47.8188 HW       589 WAT      0.417000
   1878 H2         30.2957   24.2907   47.5979 HW       589 WAT      0.417000
   1879 O          16.3095    5.2438   39.8178 OW       590 WAT     -0.834000
   1880 H1         17.1183    5.7329   39.9690 HW       590 WAT      0.417000
   1881 H2         15.9458    5.6237   39.0181 HW       590 WAT      0.417000
   1882 O           9.5240   34.2287   32.6400 OW       591 WAT     -0.834000
   1883 H1         10.3978   34.2354   32.2494 HW       591 WAT      0.417000
   1884 H2          9.1646   35.0925   32.4377 HW       591 WAT      0.417000
   1885 O          30.5293   13.9477   12.4908 OW       592 WAT     -0.834000
   1886 H1         30.0392   14.7499   12.6711 HW       592 WAT      0.417000
   1887 H2         30.4315   13.8140   11.5480 HW       592 WAT      0.417000
   1888 O          30.4501    1.3746   18.5055 OW       593 WAT     -0.834000
   1889 H1         29.6269    0.8878   18.5456 HW       593 WAT      0.417000
   1890 H2         30.1857    2.2790   18.3371 HW       593 WAT      0.417000
   1891 O          11.4709    4.1247    1.2731 OW       594 WAT     -0.834000
   1892 H1         11.5601    4.6610    0.4853 HW       594 WAT      0.417000
   1893 H2         11.8946    3.2963    1.0483 HW       594 WAT      0.417000
   1894 O          15.0431   12.4066   26.9419 OW       595 WAT     -0.834000
   1895 H1         14.7222   13.0363   27.5875 HW       595 WAT      0.417000
   1896 H2         14.5491   12.6061   26.1467 HW       595 WAT      0.417000
   1897 O          26.3502   34.5116   12.8816 OW       596 WAT     -0.834000
   1898 H1         27.3059   34.5555   12.9113 HW       596 WAT      0.417000
   1899 H2         26.1587   33.9819   12.1076 HW       596 WAT      0.417000
   1900 O          29.9231   35.0082   10.7115 OW       597 WAT     -0.834000
   1901 H1         29.7031   34.2576   11.2632 HW       597 WAT      0.417000
   1902 H2         29.3118   34.9530    9.9770 HW       597 WAT      0.417000
   1903 O          15.7084   10.0963   36.3220 OW       598 WAT     -0.834000
   1904 H1         15.0257   10.7447   36.4942 HW       598 WAT      0.417000
   1905 H2         15.7255   10.0139   35.3685 HW       598 WAT      0.417000
   1906 O          35.9948   34.7899   11.5130 OW       599 WAT     -0.834000
   1907 H1         35.8790   34.5754   12.4386 HW       599 WAT      0.417000
   1908 H2         36.2514   35.7120   11.5111 HW       599 WAT      0.417000
   1909 O          17.9451    7.5487   40.3383 OW       600 WAT     -0.834000
   1910 H1         17.2766    7.6177   39.6567 HW       600 WAT      0.417000
   1911 H2         18.7669    7.4462   39.8583 HW       600 WAT      0.417000
   1912 O          13.7849    2.2241   36.3643 OW       601 WAT     -0.834000
   1913 H1         14.4043    1.6582   35.9034 HW       601 WAT      0.417000
   1914 H2         13.0456    1.6522   36.5705 HW       601 WAT      0.417000
   1915 O          20.2339   19.0820   41.1573 OW       602 WAT     -0.834000
   1916 H1         20.4348   18.5694   40.3743 HW       602 WAT      0.417000
   1917 H2         20.2831   19.9926   40.8666 HW       602 WAT      0.417000
   1918 O          33.8374   28.6880   35.7874 OW       603 WAT     -0.834000
   1919 H1         33.9794   29.3039   36.5062 HW       603 WAT      0.417000
   1920 H2         33.2173   28.0489   36.1385 HW       603 WAT      0.417000
   1921 O          11.6600    0.3421   45.5767 OW       604 WAT     -0.834000
   1922 H1         12.2182    1.0369   45.2277 HW       604 WAT      0.417000
   1923 H2         10.8885    0.3474   45.0102 HW       604 WAT      0.417000
   1924 O          10.1544   24.2620   29.3780 OW       605 WAT     -0.834000
   1925 H1         10.5104   24.1239   30.2557 HW       605 WAT      0.417000
   1926 H2          9.2837   23.8655   29.4075 HW       605 WAT      0.417000
   1927 O          29.4311   26.1336   44.2701 OW       606 WAT     -0.834000
   1928 H1         29.2467   25.2539   43.9409 HW       606 WAT      0.417000
   1929 H2         30.3816   26.1533   44.3814 HW       606 WAT      0.417000
   1930 O          10.2161   19.1483   19.9303 OW       607 WAT     -0.834000
   1931 H1         10.2639   18.1963   19.8428 HW       607 WAT      0.417000
   1932 H2          9.4680   19.2985   20.5081 HW       607 WAT      0.417000
   1933 O          34.6270   30.2002   18.9273 OW       608 WAT     -0.834000
   1934 H1         34.3169   30.3106   19.8261 HW       608 WAT      0.417000
   1935 H2         33.8440   30.3127   18.3883 HW       608 WAT      0.417000
   1936 O          31.8547   34.5365   29.8713 OW       609 WAT     -0.834000
   1937 H1         31.2090   35.1500   29.5206 HW       609 WAT      0.417000
   1938 H2         31.6299   34.4562   30.7983 HW       609 WAT      0.417000
   1939 O           5.2111    7.8193    6.8304 OW       610 WAT     -0.834000
   1940 H1          5.0670    8.0637    5.9162 HW       610 WAT      0.417000
   1941 H2          4.6398    7.0640    6.9693 HW       610 WAT      0.417000
   1942 O          23.1352   16.8041   25.3503 OW       611 WAT     -0.834000
   1943 H1         23.7114   16.0427   25.4175 HW       611 WAT      0.417000
   1944 H2         23.5042   17.3213   24.6343 HW       611 WAT      0.417000
   1945 O          32.8871   32.9919    2.2107 OW       612 WAT     -0.834000
   1946 H1         32.8073   33.6776    2.8738 HW       612 WAT      0.417000
   1947 H2         33.6219   32.4554    2.5082 HW       612 WAT      0.417000
   1948 O           6.5594   34.7208   44.3111 OW       613 WAT     -0.834000
   1949 H1          5.8706   34.9781   43.6983 HW       613 WAT      0.417000
   1950 H2          6.9359   33.9280   43.9292 HW       613 WAT      0.417000
   1951 O          11.1319   31.0792   47.1600 OW       614 WAT     -0.834000
   1952 H1         10.9389   31.9740   47.4398 HW       614 WAT      0.417000
   1953 H2         11.0435   31.1019   46.2071 HW       614 WAT      0.417000
   1954 O          26.5846   15.4618   43.8206 OW       615 WAT     -0.834000
   1955 H1         26.7395   16.1386   44.4795 HW       615 WAT      0.417000
   1956 H2         27.4352   15.0373   43.7087 HW       615 WAT      0.417000
   1957 O          27.6735   19.3297   18.7875 OW       616 WAT     -0.834000
   1958 H1         27.6673   20.0580   18.1665 HW       616 WAT      0.417000
   1959 H2         27.1499   19.6402   19.5261 HW       616 WAT      0.417000
   1960 O          15.1046   33.2850   16.7789 OW       617 WAT     -0.834000
   1961 H1         14.2182   32.9404   16.8877 HW       617 WAT      0.417000
   1962 H2         15.0400   34.2014   17.0478 HW       617 WAT      0.417000
   1963 O          23.6894    3.7429   31.1468 OW       618 WAT     -0.834000
   1964 H1         24.0472    4.5336   31.5506 HW       618 WAT      0.417000
   1965 H2         24.2920    3.0467   31.4084 HW       618 WAT      0.417000
   1966 O          11.0247    1.5737    5.0277 OW       619 WAT     -0.834000
   1967 H1         10.6076    0.8001    5.4069 HW       619 WAT      0.417000
   1968 H2         10.4082    1.8756    4.3607 HW       619 WAT      0.417000
   1969 O           0.6394    4.3403   26.7463 OW       620 WAT     -0.834000
   1970 H1          1.4778    4.7999   26.7018 HW       620 WAT      0.417000
   1971 H2          0.2055    4.5529   25.9200 HW       620 WAT      0.417000
   1972 O          21.6130   15.2195   47.4408 OW       621 WAT     -0.834000
   1973 H1         21.2778   15.9277   46.8910 HW       621 WAT      0.417000
   1974 H2         20.9451   15.1043   48.1167 HW       621 WAT      0.417000
   1975 O          25.7175   14.2117   15.3138 OW       622 WAT     -0.834000
   1976 H1         25.1675   13.6045   14.8188 HW       622 WAT      0.417000
   1977 H2         25.4057   14.1364   16.2157 HW       622 WAT      0.417000
   1978 O           0.9237   35.1402   32.2081 OW       623 WAT     -0.834000
   1979 H1          1.2223   34.2415   32.0693 HW       623 WAT      0.417000
   1980 H2          0.2115   35.2558   31.5791 HW       623 WAT      0.417000
   1981 O          15.5768   10.1979   44.2343 OW       624 WAT     -0.834000
   1982 H1         14.9665   10.2784   44.9673 HW       624 WAT      0.417000
   1983 H2         15.8779    9.2901   44.2718 HW       624 WAT      0.417000
   1984 O          28.4235   21.3773    8.8818 OW       625 WAT     -0.834000
   1985 H1         29.0152   21.6058    9.5986 HW       625 WAT      0.417000
   1986 H2         28.8684   21.6916    8.0946 HW       625 WAT      0.417000
   1987 O          19.7910   22.5476   41.7364 OW       626 WAT     -0.834000
   1988 H1         19.5747   23.4783   41.6791 HW       626 WAT      0.417000
   1989 H2         20.3289   22.3787   40.9629 HW       626 WAT      0.417000
   1990 O           3.0294    4.3169   35.5725 OW       627 WAT     -0.834000
   1991 H1          2.6154    5.1227   35.8818 HW       627 WAT      0.417000
   1992 H2          2.3006    3.7716   35.2763 HW       627 WAT      0.417000
   1993 O          34.5536   12.6720   41.8708 OW       628 WAT     -0.834000
   1994 H1         34.5969   13.4993   41.3912 HW       628 WAT      0.417000
   1995 H2         35.2414   12.7425   42.5327 HW       628 WAT      0.417000
   1996 O          32.5128   35.9894   24.1230 OW       629 WAT     -0.834000
   1997 H1         32.7117   35.6350   23.2564 HW       629 WAT      0.417000
   1998 H2         31.5761   35.8295   24.2381 HW       629 WAT      0.417000
   1999 O          13.9301   33.9499   13.0915 OW       630 WAT     -0.834000
   2000 H1         13.8158   34.8142   13.4865 HW       630 WAT      0.417000
   2001 H2         14.8752   33.7998   13.1130 HW       630 WAT      0.417000
   2002 O          12.3921   18.4687   15.6150 OW       631 WAT     -0.834000
   2003 H1         11.9162   17.9535   14.9637 HW       631 WAT      0.417000
   2004 H2         12.1303   19.3732   15.4429 HW       631 WAT      0.417000
   2005 O           9.5957    6.8623   19.9768 OW       632 WAT     -0.834000
   2006 H1          9.9470    7.6421   20.4065 HW       632 WAT      0.417000
   2007 H2         10.2973    6.2147   20.0449 HW       632 WAT      0.417000
   2008 O          23.0104   12.6186    5.3118 OW       633 WAT     -0.834000
   2009 H1         22.5933   13.2356    4.7105 HW       633 WAT      0.417000
   2010 H2         22.7351   11.7567    4.9995 HW       633 WAT      0.417000
   2011 O          24.7977    7.3184   47.8440 OW       634 WAT     -0.834000
   2012 H1         24.2757    7.3300   48.6463 HW       634 WAT      0.417000
   2013 H2         24.2269    7.7072   47.1812 HW       634 WAT      0.417000
   2014 O          13.3851   28.8345   15.8432 OW       635 WAT     -0.834000
   2015 H1         13.7752   28.2950   15.1554 HW       635 WAT      0.417000
   2016 H2         13.2601   29.6907   15.4340 HW       635 WAT      0.417000
   2017 O           6.1929   34.8513   34.0401 OW       636 WAT     -0.834000
   2018 H1          5.8133   35.7029   34.2570 HW       636 WAT      0.417000
   2019 H2          6.8073   35.0368   33.3300 HW       636 WAT      0.417000
   2020 O          20.4280   14.5567    1.5588 OW       637 WAT     -0.834000
   2021 H1         19.4800   14.6882    1.5751 HW       637 WAT      0.417000
   2022 H2         20.5821   13.8471    2.1825 HW       637 WAT      0.417000
   2023 O           6.1635   13.8321   17.9536 OW       638 WAT     -0.834000
   2024 H1          5.2120   13.7566   17.8821 HW       638 WAT      0.417000
   2025 H2          6.4271   14.2980   17.1601 HW       638 WAT      0.417000
   2026 O          27.8850   32.9842   35.6311 OW       639 WAT     -0.834000
   2027 H1         28.7755   32.9367   35.2832 HW       639 WAT      0.417000
   2028 H2         27.9538   32.6243   36.5154 HW       639 WAT      0.417000
   2029 O          21.9553   24.7357    5.6020 OW       640 WAT     -0.834000
   2030 H1         22.1554   25.4218    6.2388 HW       640 WAT      0.417000
   2031 H2         22.7921   24.2953    5.4535 HW       640 WAT      0.417000
   2032 O          31.4509   25.3525   48.4604 OW       641 WAT     -0.834000
   2033 H1         32.2379   25.8973   48.4542 HW       641 WAT      0.417000
   2034 H2         30.7277   25.9757   48.3898 HW       641 WAT      0.417000
   2035 O          16.9981   11.7756    4.3395 OW       642 WAT     -0.834000
   2036 H1         17.0033   11.1676    3.6003 HW       642 WAT      0.417000
   2037 H2         17.8996   11.7690    4.6614 HW       642 WAT      0.417000
   2038 O          18.5613    6.3697   22.8392 OW       643 WAT     -0.834000
   2039 H1         19.1049    6.5688   22.0769 HW       643 WAT      0.417000
   2040 H2         18.0455    5.6085   22.5733 HW       643 WAT      0.417000
   2041 O          33.7568   11.0346   45.9349 OW       644 WAT     -0.834000
   2042 H1         34.2067   10.4265   46.5216 HW       644 WAT      0.417000
   2043 H2         34.3580   11.1457   45.1984 HW       644 WAT      0.417000
   2044 O          27.8955    6.7809    8.1387 OW       645 WAT     -0.834000
   2045 H1         27.6197    5.8724    8.2600 HW       645 WAT      0.417000
   2046 H2         27.3909    7.0858    7.3846 HW       645 WAT      0.417000
   2047 O          32.9690   13.7163   18.5762 OW       646 WAT     -0.834000
   2048 H1         32.9335   14.5900   18.9656 HW       646 WAT      0.417000
   2049 H2         32.1009   13.5892   18.1935 HW       646 WAT      0.417000
   2050 O          12.8233   17.5450    6.5520 OW       647 WAT     -0.834000
   2051 H1         13.2764   17.5315    5.7090 HW       647 WAT      0.417000
   2052 H2         13.5256   17.5918    7.2007 HW       647 WAT      0.417000
   2053 O           8.3856    2.1970   41.0445 OW       648 WAT     -0.834000
   2054 H1          7.8066    2.1753   41.8064 HW       648 WAT      0.417000
   2055 H2          8.8172    3.0498   41.0959 HW       648 WAT      0.417000
   2056 O           3.3953   14.5623    1.1063 OW       649 WAT     -0.834000
   2057 H1          3.1953   14.7537    0.1901 HW       649 WAT      0.417000
   2058 H2          2.7504   13.9017    1.3593 HW       649 WAT      0.417000
   2059 O           4.4860   35.8149   18.1211 OW       650 WAT     -0.834000
   2060 H1          3.9541   35.0617   18.3781 HW       650 WAT      0.417000
   2061 H2          5.3443   35.6456   18.5094 HW       650 WAT      0.417000
   2062 O           6.9812   12.1210   37.5899 OW       651 WAT     -0.834000
   2063 H1          6.0902   12.4150   37.7797 HW       651 WAT      0.417000
   2064 H2          7.0571   12.1858   36.6379 HW       651 WAT      0.417000
   2065 O          33.5201    7.0221    3.6658 OW       652 WAT     -0.834000
   2066 H1         34.2420    7.4537    4.1228 HW       652 WAT      0.417000
   2067 H2         33.4130    6.1873    4.1217 HW       652 WAT      0.417000
   2068 O          22.9824   18.0779   41.7360 OW       653 WAT     -0.834000
   2069 H1         22.0512   18.1380   41.9492 HW       653 WAT      0.417000
   2070 H2         23.3152   17.3871   42.3089 HW       653 WAT      0.417000
   2071 O          17.3515   34.6835    5.1989 OW       654 WAT     -0.834000
   2072 H1         17.0004   34.8725    6.0692 HW       654 WAT      0.417000
   2073 H2         17.1695   35.4738    4.6904 HW       654 WAT      0.417000
   2074 O          32.2402   29.1456    8.4976 OW       655 WAT     -0.834000
   2075 H1         33.0549   29.6161    8.6741 HW       655 WAT      0.417000
   2076 H2         31.9719   28.8031    9.3502 HW       655 WAT      0.417000
   2077 O          24.3292    6.3571   37.3391 OW       656 WAT     -0.834000
   2078 H1         25.2384    6.0642   37.4004 HW       656 WAT      0.417000
   2079 H2         24.3845    7.3127   37.3450 HW       656 WAT      0.417000
   2080 O           4.8353   21.0045   26.5152 OW       657 WAT     -0.834000
   2081 H1          5.4105   20.7172   25.8061 HW       657 WAT      0.417000
   2082 H2          5.2985   20.7558   27.3151 HW       657 WAT      0.417000
   2083 O          17.3865    1.4405   25.2339 OW       658 WAT     -0.834000
   2084 H1         17.8160    2.2563   24.9768 HW       658 WAT      0.417000
   2085 H2         17.7695    1.2259   26.0845 HW       658 WAT      0.417000
   2086 O          36.6592   10.7983    9.4491 OW       659 WAT     -0.834000
   2087 H1         36.5331   11.1947    8.5870 HW       659 WAT      0.417000
   2088 H2         35.7875   10.4957    9.7034 HW       659 WAT      0.417000
   2089 O          14.6087    2.4634   20.9852 OW       660 WAT     -0.834000
   2090 H1         14.1089    1.6879   21.2402 HW       660 WAT      0.417000
   2091 H2         14.2139    3.1778   21.4851 HW       660 WAT      0.417000
   2092 O           7.0579   20.0889   49.9404 OW       661 WAT     -0.834000
   2093 H1          7.8531   20.6154   50.0225 HW       661 WAT      0.417000
   2094 H2          7.1837   19.3675   50.5569 HW       661 WAT      0.417000
   2095 O           1.5585    7.8495   11.6990 OW       662 WAT     -0.834000
   2096 H1          1.9877    8.5057   12.2481 HW       662 WAT      0.417000
   2097 H2          1.7652    8.1148   10.8029 HW       662 WAT      0.417000
   2098 O           5.0694    6.3209   49.2432 OW       663 WAT     -0.834000
   2099 H1          5.6853    6.1288   49.9503 HW       663 WAT      0.417000
   2100 H2          4.5002    5.5522   49.2058 HW       663 WAT      0.417000
   2101 O           4.1718   14.4900   20.7134 OW       664 WAT     -0.834000
   2102 H1          4.2891   13.5770   20.9760 HW       664 WAT      0.417000
   2103 H2          5.0507   14.8666   20.7570 HW       664 WAT      0.417000
   2104 O           5.3065   35.2761   38.3625 OW       665 WAT     -0.834000
   2105 H1          5.1467   36.0363   38.9217 HW       665 WAT      0.417000
   2106 H2          5.8302   34.6859   38.9045 HW       665 WAT      0.417000
   2107 O           9.9066   26.0232   27.1536 OW       666 WAT     -0.834000
   2108 H1          9.8582   25.5286   27.9716 HW       666 WAT      0.417000
   2109 H2          9.6249   25.4027   26.4814 HW       666 WAT      0.417000
   2110 O          23.5190   21.5592   16.2093 OW       667 WAT     -0.834000
   2111 H1         23.9170   22.4177   16.0646 HW       667 WAT      0.417000
   2112 H2         22.6932   21.5937   15.7265 HW       667 WAT      0.417000
   2113 O          18.0316   33.5200   50.7028 OW       668 WAT     -0.834000
   2114 H1         18.0321   32.6443   51.0893 HW       668 WAT      0.417000
   2115 H2         17.1904   33.5817   50.2504 HW       668 WAT      0.417000
   2116 O          24.0326   31.5123   44.8375 OW       669 WAT     -0.834000
   2117 H1         24.5405   30.8365   44.3886 HW       669 WAT      0.417000
   2118 H2         24.2762   32.3268   44.3975 HW       669 WAT      0.417000
   2119 O          25.7920   31.6898    4.9423 OW       670 WAT     -0.834000
   2120 H1         25.7544   31.1373    4.1616 HW       670 WAT      0.417000
   2121 H2         24.8842   31.7448    5.2408 HW       670 WAT      0.417000
   2122 O           9.5751    5.5842   48.9095 OW       671 WAT     -0.834000
   2123 H1         10.3027    5.1180   49.3211 HW       671 WAT      0.417000
   2124 H2          9.1671    6.0713   49.6254 HW       671 WAT      0.417000
   2125 O          22.9512   32.6961    5.8560 OW       672 WAT     -0.834000
   2126 H1         22.5248   33.3585    5.3123 HW       672 WAT      0.417000
   2127 H2         22.5251   31.8747    5.6111 HW       672 WAT      0.417000
   2128 O          24.3219   17.4095    0.5445 OW       673 WAT     -0.834000
   2129 H1         23.8275   18.1502    0.8953 HW       673 WAT      0.417000
   2130 H2         23.8273   17.1356   -0.2278 HW       673 WAT      0.417000
   2131 O          14.0593   25.2428   15.0039 OW       674 WAT     -0.834000
   2132 H1         13.1922   25.2374   15.4093 HW       674 WAT      0.417000
   2133 H2         14.5362   24.5422   15.4487 HW       674 WAT      0.417000
   2134 O          28.4978   32.1126   43.4971 OW       675 WAT     -0.834000
   2135 H1         29.2812   31.6864   43.8450 HW       675 WAT      0.417000
   2136 H2         28.0500   32.4578   44.2695 HW       675 WAT      0.417000
   2137 O          29.1401   14.0039   43.5893 OW       676 WAT     -0.834000
   2138 H1         29.8653   14.0339   44.2133 HW       676 WAT      0.417000
   2139 H2         29.3667   13.2905   42.9928 HW       676 WAT      0.417000
   2140 O          24.8542   21.7623   49.7515 OW       677 WAT     -0.834000
   2141 H1         24.8453   21.1984   50.5248 HW       677 WAT      0.417000
   2142 H2         25.3636   21.2740   49.1048 HW       677 WAT      0.417000
   2143 O           8.2570    4.7393   37.3671 OW       678 WAT     -0.834000
   2144 H1          8.6263    5.5289   36.9716 HW       678 WAT      0.417000
   2145 H2          8.9858    4.1192   37.3891 HW       678 WAT      0.417000
   2146 O          12.7904   31.8311   16.7596 OW       679 WAT     -0.834000
   2147 H1         12.0938   31.1748   16.7412 HW       679 WAT      0.417000
   2148 H2         12.9522   32.0344   15.8383 HW       679 WAT      0.417000
   2149 O          17.3713   23.4829   26.0568 OW       680 WAT     -0.834000
   2150 H1         17.1790   23.8134   25.1793 HW       680 WAT      0.417000
   2151 H2         17.5573   24.2674   26.5728 HW       680 WAT      0.417000
   2152 O          18.1807   30.5375   48.8325 OW       681 WAT     -0.834000
   2153 H1         18.9603   31.0756   48.9700 HW       681 WAT      0.417000
   2154 H2         17.6568   30.6685   49.6227 HW       681 WAT      0.417000
   2155 O           6.9960    5.7676   29.4065 OW       682 WAT     -0.834000
   2156 H1          6.3466    5.6301   30.0961 HW       682 WAT      0.417000
   2157 H2          7.7273    5.1999   29.6496 HW       682 WAT      0.417000
   2158 O          29.7776   30.8932   33.4476 OW       683 WAT     -0.834000
   2159 H1         30.6586   30.5292   33.3609 HW       683 WAT      0.417000
   2160 H2         29.9075   31.7327   33.8887 HW       683 WAT      0.417000
   2161 O          13.7204   29.3003    8.5764 OW       684 WAT     -0.834000
   2162 H1         14.4030   28.6366    8.6751 HW       684 WAT      0.417000
   2163 H2         12.9503   28.8107    8.2875 HW       684 WAT      0.417000
   2164 O           9.8102   22.9163   36.8184 OW       685 WAT     -0.834000
   2165 H1         10.1502   22.2555   37.4216 HW       685 WAT      0.417000
   2166 H2          9.5283   23.6349   37.3844 HW       685 WAT      0.417000
   2167 O           5.9326   22.0986   43.9915 OW       686 WAT     -0.834000
   2168 H1          5.2426   22.5907   44.4365 HW       686 WAT      0.417000
   2169 H2          5.6311   21.1903   44.0134 HW       686 WAT      0.417000
   2170 O           7.6850   15.0537   30.4119 OW       687 WAT     -0.834000
   2171 H1          8.6241   15.2366   30.3823 HW       687 WAT      0.417000
   2172 H2          7.5851   14.4293   31.1305 HW       687 WAT      0.417000
   2173 O          32.8630   17.8383    8.1993 OW       688 WAT     -0.834000
   2174 H1         33.1603   17.2329    8.8785 HW       688 WAT      0.417000
   2175 H2         32.0921   18.2620    8.5770 HW       688 WAT      0.417000
   2176 O          17.2566   25.3582   17.8197 OW       689 WAT     -0.834000
   2177 H1         16.6627   25.1646   18.5450 HW       689 WAT      0.417000
   2178 H2         18.1250   25.3832   18.2214 HW       689 WAT      0.417000
   2179 O           8.4202   25.8025    2.2671 OW       690 WAT     -0.834000
   2180 H1          9.1099   26.2104    2.7906 HW       690 WAT      0.417000
   2181 H2          7.6535   25.8012    2.8402 HW       690 WAT      0.417000
   2182 O          17.0868    8.0290   45.6769 OW       691 WAT     -0.834000
   2183 H1         17.2559    8.5930   46.4316 HW       691 WAT      0.417000
   2184 H2         17.8598    8.1331   45.1221 HW       691 WAT      0.417000
   2185 O          21.5748   16.8481   10.5763 OW       692 WAT     -0.834000
   2186 H1         20.7851   17.3133   10.3003 HW       692 WAT      0.417000
   2187 H2         21.9218   16.4660    9.7702 HW       692 WAT      0.417000
   2188 O           5.3401   16.2900   45.4423 OW       693 WAT     -0.834000
   2189 H1          5.5899   17.1469   45.7879 HW       693 WAT      0.417000
   2190 H2          5.0836   16.4626   44.5363 HW       693 WAT      0.417000
   2191 O          32.0065   10.1141   16.1710 OW       694 WAT     -0.834000
   2192 H1         32.6897   10.4958   15.6198 HW       694 WAT      0.417000
   2193 H2         32.0072    9.1842   15.9439 HW       694 WAT      0.417000
   2194 O           5.5331   16.7127   13.6407 OW       695 WAT     -0.834000
   2195 H1          5.5657   17.4848   14.2055 HW       695 WAT      0.417000
   2196 H2          4.7989   16.1997   13.9785 HW       695 WAT      0.417000
   2197 O          27.4931   34.1376    9.5898 OW       696 WAT     -0.834000
   2198 H1         27.0344   33.7627   10.3416 HW       696 WAT      0.417000
   2199 H2         27.3952   33.4828    8.8985 HW       696 WAT      0.417000
   2200 O          32.6071   22.3538    2.1619 OW       697 WAT     -0.834000
   2201 H1         32.8928   21.5378    1.7511 HW       697 WAT      0.417000
   2202 H2         33.4201   22.7988    2.4014 HW       697 WAT      0.417000
   2203 O           5.0050   20.1779   17.8205 OW       698 WAT     -0.834000
   2204 H1          4.1743   20.4427   17.4254 HW       698 WAT      0.417000
   2205 H2          5.6018   20.0777   17.0788 HW       698 WAT      0.417000
   2206 O          12.7913    5.1562   39.2168 OW       699 WAT     -0.834000
   2207 H1         12.9980    6.0861   39.1225 HW       699 WAT      0.417000
   2208 H2         13.4051    4.8404   39.8800 HW       699 WAT      0.417000
   2209 O          11.3733   28.8444   39.7871 OW       700 WAT     -0.834000
   2210 H1         12.2030   29.2860   39.9684 HW       700 WAT      0.417000
   2211 H2         10.7037   29.4860   40.0244 HW       700 WAT      0.417000
   2212 O           3.8265   24.9609   35.6602 OW       701 WAT     -0.834000
   2213 H1          3.7711   24.1476   36.1618 HW       701 WAT      0.417000
   2214 H2          3.2371   24.8254   34.9182 HW       701 WAT      0.417000
   2215 O           0.6577    7.8366   38.8220 OW       702 WAT     -0.834000
   2216 H1          1.3522    7.6937   39.4650 HW       702 WAT      0.417000
   2217 H2          0.3144    8.7057   39.0293 HW       702 WAT      0.417000
   2218 O          29.4696    3.4541   25.1316 OW       703 WAT     -0.834000
   2219 H1         29.7500    3.3290   26.0382 HW       703 WAT      0.417000
   2220 H2         29.4072    4.4037   25.0290 HW       703 WAT      0.417000
   2221 O           4.0209   36.6813   42.8826 OW       704 WAT     -0.834000
   2222 H1          3.9493   36.6715   43.8370 HW       704 WAT      0.417000
   2223 H2          3.1162   36.6294   42.5740 HW       704 WAT      0.417000
   2224 O          21.0472    5.3779   40.2212 OW       705 WAT     -0.834000
   2225 H1         20.5594    4.7246   39.7195 HW       705 WAT      0.417000
   2226 H2         21.2581    4.9386   41.0451 HW       705 WAT      0.417000
   2227 O          13.6595    1.4605    3.2845 OW       706 WAT     -0.834000
   2228 H1         13.9695    0.9565    4.0368 HW       706 WAT      0.417000
   2229 H2         12.7174    1.5505    3.4282 HW       706 WAT      0.417000
   2230 O           4.1809   12.0515   30.2810 OW       707 WAT     -0.834000
   2231 H1          3.8417   12.1474   29.3910 HW       707 WAT      0.417000
   2232 H2          3.9019   12.8490   30.7308 HW       707 WAT      0.417000
   2233 O          18.8100    2.7066   15.6389 OW       708 WAT     -0.834000
   2234 H1         19.2877    3.4816   15.3433 HW       708 WAT      0.417000
   2235 H2         19.4926    2.0969   15.9191 HW       708 WAT      0.417000
   2236 O          16.1693   12.0000   17.7148 OW       709 WAT     -0.834000
   2237 H1         17.0706   12.2136   17.9561 HW       709 WAT      0.417000
   2238 H2         15.9240   12.6758   17.0829 HW       709 WAT      0.417000
   2239 O          26.2902   16.5847   24.5548 OW       710 WAT     -0.834000
   2240 H1         26.0582   17.4457   24.9028 HW       710 WAT      0.417000
   2241 H2         26.7661   16.7735   23.7460 HW       710 WAT      0.417000
   2242 O           3.5877   23.5116   42.8964 OW       711 WAT     -0.834000
   2243 H1          4.3158   24.1092   43.0670 HW       711 WAT      0.417000
   2244 H2          3.8258   23.0705   42.0809 HW       711 WAT      0.417000
   2245 O          15.2426   31.4990    8.9290 OW       712 WAT     -0.834000
   2246 H1         14.6823   30.7325    8.8072 HW       712 WAT      0.417000
   2247 H2         16.1080   31.1358    9.1169 HW       712 WAT      0.417000
   2248 O           1.1322   17.6718   31.4352 OW       713 WAT     -0.834000
   2249 H1          1.0657   16.7177   31.3951 HW       713 WAT      0.417000
   2250 H2          1.7495   17.8983   30.7396 HW       713 WAT      0.417000
   2251 O          28.8047   20.9161   36.1477 OW       714 WAT     -0.834000
   2252 H1         29.5874   21.4232   36.3632 HW       714 WAT      0.417000
   2253 H2         29.0072   20.5095   35.3051 HW       714 WAT      0.417000
   2254 O           0.9449   23.0821   29.9633 OW       715 WAT     -0.834000
   2255 H1          0.7628   23.6364   29.2044 HW       715 WAT      0.417000
   2256 H2          0.6118   22.2197   29.7154 HW       715 WAT      0.417000
   2257 O          20.6441   25.3985   39.8441 OW       716 WAT     -0.834000
   2258 H1         20.7196   26.3513   39.8960 HW       716 WAT      0.417000
   2259 H2         19.7212   25.2211   40.0259 HW       716 WAT      0.417000
   2260 O           7.2469    1.5526   25.1613 OW       717 WAT     -0.834000
   2261 H1          7.0327    0.7658   25.6625 HW       717 WAT      0.417000
   2262 H2          7.7985    1.2377   24.4452 HW       717 WAT      0.417000
   2263 O          18.4478   30.8734    6.8623 OW       718 WAT     -0.834000
   2264 H1         18.8170   31.2411    6.0593 HW       718 WAT      0.417000
   2265 H2         17.7491   30.2928    6.5606 HW       718 WAT      0.417000
   2266 O          36.1016    0.6653   44.4596 OW       719 WAT     -0.834000
   2267 H1         36.6358   -0.0628   44.1423 HW       719 WAT      0.417000
   2268 H2         35.2017    0.3436   44.4055 HW       719 WAT      0.417000
   2269 O           7.5470   13.5634   40.6766 OW       720 WAT     -0.834000
   2270 H1          6.7862   13.4930   40.1000 HW       720 WAT      0.417000
   2271 H2          7.3457   12.9828   41.4106 HW       720 WAT      0.417000
   2272 O          30.1697   21.9630   45.6078 OW       721 WAT     -0.834000
   2273 H1         30.3404   22.3562   44.7520 HW       721 WAT      0.417000
   2274 H2         29.9200   22.7003   46.1648 HW       721 WAT      0.417000
   2275 O          26.6652    3.4862   43.0520 OW       722 WAT     -0.834000
   2276 H1         25.7769    3.2030   42.8350 HW       722 WAT      0.417000
   2277 H2         26.5495    4.3416   43.4656 HW       722 WAT      0.417000
   2278 O          30.1355    0.8441   15.2819 OW       723 WAT     -0.834000
   2279 H1         29.7468    0.1545   15.8201 HW       723 WAT      0.417000
   2280 H2         30.6255    1.3842   15.9019 HW       723 WAT      0.417000
   2281 O           2.9067   13.4902   28.3157 OW       724 WAT     -0.834000
   2282 H1          2.2582   13.6334   27.6263 HW       724 WAT      0.417000
   2283 H2          3.7473   13.6709   27.8950 HW       724 WAT      0.417000
   2284 O          22.2635   15.6802   51.0990 OW       725 WAT     -0.834000
   2285 H1         21.9880   15.6440   52.0150 HW       725 WAT      0.417000
   2286 H2         22.7965   14.8944   50.9780 HW       725 WAT      0.417000
   2287 O          11.0426   13.6021    8.9495 OW       726 WAT     -0.834000
   2288 H1         10.1497   13.7630    8.6445 HW       726 WAT      0.417000
   2289 H2         11.5997   13.9434    8.2500 HW       726 WAT      0.417000
   2290 O          28.6823   16.5645   30.6918 OW       727 WAT     -0.834000
   2291 H1         28.7105   15.6649   30.3659 HW       727 WAT      0.417000
   2292 H2         28.5914   16.4729   31.6403 HW       727 WAT      0.417000
   2293 O          28.6979   28.8551   35.1745 OW       728 WAT     -0.834000
   2294 H1         29.0125   28.8189   34.2712 HW       728 WAT      0.417000
   2295 H2         27.9880   28.2139   35.2067 HW       728 WAT      0.417000
   2296 O          19.6558   36.9359    5.7660 OW       729 WAT     -0.834000
   2297 H1         19.0881   36.1658    5.7963 HW       729 WAT      0.417000
   2298 H2         20.2791   36.7465    5.0646 HW       729 WAT      0.417000
   2299 O          23.1526    2.3117   17.2837 OW       730 WAT     -0.834000
   2300 H1         22.5342    1.6075   17.0891 HW       730 WAT      0.417000
   2301 H2         22.9230    3.0087   16.6691 HW       730 WAT      0.417000
   2302 O           9.1446   36.6949   11.7061 OW       731 WAT     -0.834000
   2303 H1          8.9753   36.8913   10.7847 HW       731 WAT      0.417000
   2304 H2          9.6274   35.8685   11.6901 HW       731 WAT      0.417000
   2305 O          23.9035   23.9977   19.5835 OW       732 WAT     -0.834000
   2306 H1         23.6263   23.0815   19.5786 HW       732 WAT      0.417000
   2307 H2         24.4143   24.0977   18.7803 HW       732 WAT      0.417000
   2308 O           2.2706   28.6372   45.6499 OW       733 WAT     -0.834000
   2309 H1          1.7371   28.7452   44.8626 HW       733 WAT      0.417000
   2310 H2          3.0185   29.2190   45.5141 HW       733 WAT      0.417000
   2311 O          17.9894    4.3065   50.2285 OW       734 WAT     -0.834000
   2312 H1         18.4256    5.0875   50.5692 HW       734 WAT      0.417000
   2313 H2         18.3108    3.5930   50.7797 HW       734 WAT      0.417000
   2314 O          30.2643   20.8439   48.9414 OW       735 WAT     -0.834000
   2315 H1         30.1878   19.9270   49.2054 HW       735 WAT      0.417000
   2316 H2         30.7416   20.8154   48.1122 HW       735 WAT      0.417000
   2317 O          20.8932    1.0228   16.2085 OW       736 WAT     -0.834000
   2318 H1         21.2264    0.2495   15.7533 HW       736 WAT      0.417000
   2319 H2         20.9717    0.8063   17.1376 HW       736 WAT      0.417000
   2320 O          21.7924   30.7853   46.7195 OW       737 WAT     -0.834000
   2321 H1         22.5554   30.9863   46.1776 HW       737 WAT      0.417000
   2322 H2         21.3371   30.0906   46.2438 HW       737 WAT      0.417000
   2323 O          11.7183   12.8763   49.8924 OW       738 WAT     -0.834000
   2324 H1         11.3428   12.2898   49.2356 HW       738 WAT      0.417000
   2325 H2         11.2133   13.6850   49.8081 HW       738 WAT      0.417000
   2326 O          25.2092    9.0285   17.0615 OW       739 WAT     -0.834000
   2327 H1         25.0595    9.3292   16.1652 HW       739 WAT      0.417000
   2328 H2         25.7820    9.6928   17.4446 HW       739 WAT      0.417000
   2329 O          23.2538    8.6231   13.4807 OW       740 WAT     -0.834000
   2330 H1         23.3094    9.3258   14.1283 HW       740 WAT      0.417000
   2331 H2         22.9009    7.8774   13.9662 HW       740 WAT      0.417000
   2332 O          28.5306    0.2512   36.2023 OW       741 WAT     -0.834000
   2333 H1         28.6988   -0.5018   36.7688 HW       741 WAT      0.417000
   2334 H2         28.8131    1.0066   36.7179 HW       741 WAT      0.417000
   2335 O          30.9879   33.6086    5.1388 OW       742 WAT     -0.834000
   2336 H1         30.2882   32.9554    5.1489 HW       742 WAT      0.417000
   2337 H2         30.7127   34.2643    5.7795 HW       742 WAT      0.417000
   2338 O          36.4362   28.9522   26.6336 OW       743 WAT     -0.834000
   2339 H1         37.2625   28.8797   26.1559 HW       743 WAT      0.417000
   2340 H2         36.0142   29.7286   26.2658 HW       743 WAT      0.417000
   2341 O           8.3760   12.8738   32.7236 OW       744 WAT     -0.834000
   2342 H1          7.4469   12.7841   32.9359 HW       744 WAT      0.417000
   2343 H2          8.8248   12.7663   33.5623 HW       744 WAT      0.417000
   2344 O           8.8609   30.0796   32.9592 OW       745 WAT     -0.834000
   2345 H1          9.3906   29.3632   33.3090 HW       745 WAT      0.417000
   2346 H2          8.7400   29.8594   32.0356 HW       745 WAT      0.417000
   2347 O          13.1113    5.1955   46.2837 OW       746 WAT     -0.834000
   2348 H1         12.6820    5.5589   45.5092 HW       746 WAT      0.417000
   2349 H2         13.4130    5.9616   46.7719 HW       746 WAT      0.417000
   2350 O          21.0052    8.6126   21.5032 OW       747 WAT     -0.834000
   2351 H1         21.0505    7.7216   21.1564 HW       747 WAT      0.417000
   2352 H2         20.7106    8.5030   22.4073 HW       747 WAT      0.417000
   2353 O           5.9723   14.0637    4.7755 OW       748 WAT     -0.834000
   2354 H1          6.4261   13.2361    4.6163 HW       748 WAT      0.417000
   2355 H2          6.6182   14.6083    5.2255 HW       748 WAT      0.417000
   2356 O          34.3161   26.8604   12.2039 OW       749 WAT     -0.834000
   2357 H1         35.0902   26.2974   12.1972 HW       749 WAT      0.417000
   2358 H2         33.5825   26.2576   12.3249 HW       749 WAT      0.417000
   2359 O          12.4314   22.1078   30.2181 OW       750 WAT     -0.834000
   2360 H1         12.5823   23.0359   30.0388 HW       750 WAT      0.417000
   2361 H2         12.8203   21.6531   29.4710 HW       750 WAT      0.417000
   2362 O          15.0041    8.3254   19.9529 OW       751 WAT     -0.834000
   2363 H1         14.4224    8.1101   20.6819 HW       751 WAT      0.417000
   2364 H2         15.4958    9.0886   20.2560 HW       751 WAT      0.417000
   2365 O          24.0110   22.0890   12.0535 OW       752 WAT     -0.834000
   2366 H1         23.3219   21.4994   12.3598 HW       752 WAT      0.417000
   2367 H2         24.2583   21.7433   11.1958 HW       752 WAT      0.417000
   2368 O          21.3374   35.7123   40.5697 OW       753 WAT     -0.834000
   2369 H1         21.6056   34.8019   40.6946 HW       753 WAT      0.417000
   2370 H2         21.7658   35.9787   39.7563 HW       753 WAT      0.417000
   2371 O          27.3790    0.3414    1.0568 OW       754 WAT     -0.834000
   2372 H1         27.9581    0.2712    1.8157 HW       754 WAT      0.417000
   2373 H2         27.8382   -0.1287    0.3608 HW       754 WAT      0.417000
   2374 O          32.1689    1.0002   30.3202 OW       755 WAT     -0.834000
   2375 H1         32.5462    1.8444   30.0728 HW       755 WAT      0.417000
   2376 H2         32.6524    0.7426   31.1051 HW       755 WAT      0.417000
   2377 O           3.2989   31.9943   23.7849 OW       756 WAT     -0.834000
   2378 H1          3.0511   32.4472   24.5909 HW       756 WAT      0.417000
   2379 H2          4.2304   31.8029   23.8943 HW       756 WAT      0.417000
   2380 O           2.5135   15.6598   39.6066 OW       757 WAT     -0.834000
   2381 H1          3.3150   15.8886   40.0772 HW       757 WAT      0.417000
   2382 H2          2.7254   15.8099   38.6853 HW       757 WAT      0.417000
   2383 O          10.1866   12.0590   47.8286 OW       758 WAT     -0.834000
   2384 H1          9.7743   11.2089   47.6747 HW       758 WAT      0.417000
   2385 H2          9.9301   12.5897   47.0745 HW       758 WAT      0.417000
   2386 O          11.3432   14.0894    2.3613 OW       759 WAT     -0.834000
   2387 H1         11.7849   13.6268    3.0735 HW       759 WAT      0.417000
   2388 H2         10.6211   14.5513    2.7873 HW       759 WAT      0.417000
   2389 O           6.7566   25.4924   16.0346 OW       760 WAT     -0.834000
   2390 H1          7.6459   25.4711   15.6811 HW       760 WAT      0.417000
   2391 H2          6.8570   25.8585   16.9134 HW       760 WAT      0.417000
   2392 O           2.5498   23.3589   12.2062 OW       761 WAT     -0.834000
   2393 H1          1.8828   22.9748   11.6373 HW       761 WAT      0.417000
   2394 H2          3.3803   23.1383   11.7845 HW       761 WAT      0.417000
   2395 O          31.2375   35.4959   32.6886 OW       762 WAT     -0.834000
   2396 H1         31.8685   35.4984   33.4083 HW       762 WAT      0.417000
   2397 H2         31.0753   36.4220   32.5090 HW       762 WAT      0.417000
   2398 O           0.3195   25.8705   12.4875 OW       763 WAT     -0.834000
   2399 H1          0.4667   26.8131   12.5657 HW       763 WAT      0.417000
   2400 H2          0.8057   25.4906   13.2193 HW       763 WAT      0.417000
   2401 O          34.9161   33.0321   -0.0427 OW       764 WAT     -0.834000
   2402 H1         34.2837   32.9875    0.6745 HW       764 WAT      0.417000
   2403 H2         35.6972   32.5972    0.2993 HW       764 WAT      0.417000
   2404 O          32.8426   17.9396   45.3951 OW       765 WAT     -0.834000
   2405 H1         33.6869   18.2659   45.0839 HW       765 WAT      0.417000
   2406 H2         33.0673   17.2345   46.0022 HW       765 WAT      0.417000
   2407 O          22.8027   20.3408   27.8399 OW       766 WAT     -0.834000
   2408 H1         22.0090   20.8020   28.1111 HW       766 WAT      0.417000
   2409 H2         22.5262   19.4307   27.7330 HW       766 WAT      0.417000
   2410 O          15.1522   21.8021   44.8174 OW       767 WAT     -0.834000
   2411 H1         14.3484   21.7272   45.3316 HW       767 WAT      0.417000
   2412 H2         14.9962   22.5465   44.2362 HW       767 WAT      0.417000
   2413 O          22.4271   10.7211   22.1131 OW       768 WAT     -0.834000
   2414 H1         22.4613   10.4776   23.0381 HW       768 WAT      0.417000
   2415 H2         21.9299   10.0163   21.6981 HW       768 WAT      0.417000
   2416 O          12.1413   27.6336    6.8186 OW       769 WAT     -0.834000
   2417 H1         11.5416   26.9249    7.0518 HW       769 WAT      0.417000
   2418 H2         12.8822   27.1931    6.4024 HW       769 WAT      0.417000
   2419 O          26.8879   15.8093   21.6730 OW       770 WAT     -0.834000
   2420 H1         27.5140   15.1709   22.0148 HW       770 WAT      0.417000
   2421 H2         27.2579   16.6592   21.9118 HW       770 WAT      0.417000
   2422 O           3.2362   32.1953   31.0464 OW       771 WAT     -0.834000
   2423 H1          3.8448   32.6617   30.4734 HW       771 WAT      0.417000
   2424 H2          3.0510   31.3777   30.5844 HW       771 WAT      0.417000
   2425 O           5.5048   13.7754   27.1022 OW       772 WAT     -0.834000
   2426 H1          6.0257   14.5123   27.4213 HW       772 WAT      0.417000
   2427 H2          5.1802   14.0632   26.2489 HW       772 WAT      0.417000
   2428 O           9.0542   10.1598    6.7583 OW       773 WAT     -0.834000
   2429 H1          9.0018    9.2237    6.5657 HW       773 WAT      0.417000
   2430 H2          9.8648   10.4460    6.3372 HW       773 WAT      0.417000
   2431 O          30.7514    6.0096   44.1528 OW       774 WAT     -0.834000
   2432 H1         30.0694    5.9371   43.4850 HW       774 WAT      0.417000
   2433 H2         31.1707    6.8518   43.9766 HW       774 WAT      0.417000
   2434 O          33.7870   27.2211   30.4662 OW       775 WAT     -0.834000
   2435 H1         33.5792   28.1460   30.5991 HW       775 WAT      0.417000
   2436 H2         33.7624   27.1042   29.5165 HW       775 WAT      0.417000
   2437 O           0.9491   15.0053   32.6070 OW       776 WAT     -0.834000
   2438 H1          0.8483   14.4198   31.8565 HW       776 WAT      0.417000
   2439 H2          1.1313   14.4216   33.3434 HW       776 WAT      0.417000
   2440 O           1.0356   22.1331   20.8734 OW       777 WAT     -0.834000
   2441 H1          1.6601   22.7518   21.2523 HW       777 WAT      0.417000
   2442 H2          0.5663   21.7749   21.6268 HW       777 WAT      0.417000
   2443 O          30.6866   32.4166   38.4017 OW       778 WAT     -0.834000
   2444 H1         30.4530   31.7403   37.7658 HW       778 WAT      0.417000
   2445 H2         30.5928   31.9880   39.2524 HW       778 WAT      0.417000
   2446 O           3.6419   16.2084    4.4373 OW       779 WAT     -0.834000
   2447 H1          4.0141   16.7287    3.7252 HW       779 WAT      0.417000
   2448 H2          3.4381   15.3638    4.0356 HW       779 WAT      0.417000
   2449 O          12.2813   24.9978    9.3370 OW       780 WAT     -0.834000
   2450 H1         13.1527   24.6081    9.4074 HW       780 WAT      0.417000
   2451 H2         12.0039   25.1296   10.2436 HW       780 WAT      0.417000
   2452 O          31.5934   28.5715   22.8069 OW       781 WAT     -0.834000
   2453 H1         31.7973   28.5001   21.8744 HW       781 WAT      0.417000
   2454 H2         32.4393   28.7315   23.2254 HW       781 WAT      0.417000
   2455 O          24.1103   12.9569   41.6761 OW       782 WAT     -0.834000
   2456 H1         24.7575   13.0300   42.3775 HW       782 WAT      0.417000
   2457 H2         23.5459   12.2322   41.9455 HW       782 WAT      0.417000
   2458 O          14.9419   18.8659    8.6936 OW       783 WAT     -0.834000
   2459 H1         15.7097   18.3178    8.5316 HW       783 WAT      0.417000
   2460 H2         14.7878   18.7899    9.6353 HW       783 WAT      0.417000
   2461 O          24.2416   13.8394    0.0632 OW       784 WAT     -0.834000
   2462 H1         25.1625   13.5800    0.0328 HW       784 WAT      0.417000
   2463 H2         23.9193   13.4821    0.8906 HW       784 WAT      0.417000
   2464 O           3.0091    2.8418   39.4322 OW       785 WAT     -0.834000
   2465 H1          2.3091    2.1975   39.5374 HW       785 WAT      0.417000
   2466 H2          2.7123    3.6018   39.9328 HW       785 WAT      0.417000
   2467 O          31.7445   17.9785   35.7986 OW       786 WAT     -0.834000
   2468 H1         31.6349   17.4390   36.5816 HW       786 WAT      0.417000
   2469 H2         31.5163   18.8634   36.0836 HW       786 WAT      0.417000
   2470 O           5.6103   15.3900   34.0576 OW       787 WAT     -0.834000
   2471 H1          5.6408   16.1519   33.4790 HW       787 WAT      0.417000
   2472 H2          5.7767   14.6444   33.4808 HW       787 WAT      0.417000
   2473 O          14.5032    9.7710   13.0635 OW       788 WAT     -0.834000
   2474 H1         14.4074   10.4022   13.7767 HW       788 WAT      0.417000
   2475 H2         14.3007    8.9252   13.4633 HW       788 WAT      0.417000
   2476 O          27.6063   36.4513   21.9422 OW       789 WAT     -0.834000
   2477 H1         28.1044   35.6668   22.1718 HW       789 WAT      0.417000
   2478 H2         26.7685   36.3434   22.3924 HW       789 WAT      0.417000
   2479 O           2.2097    5.6218   19.5402 OW       790 WAT     -0.834000
   2480 H1          1.7541    4.7852   19.6338 HW       790 WAT      0.417000
   2481 H2          3.0723    5.3877   19.1974 HW       790 WAT      0.417000
   2482 O          19.6026   18.4062    9.6953 OW       791 WAT     -0.834000
   2483 H1         19.2400   19.1817   10.1234 HW       791 WAT      0.417000
   2484 H2         20.2199   18.7545    9.0519 HW       791 WAT      0.417000
   2485 O          23.6784    5.3811   11.1654 OW       792 WAT     -0.834000
   2486 H1         23.3573    6.2828   11.1606 HW       792 WAT      0.417000
   2487 H2         23.3455    5.0039   10.3510 HW       792 WAT      0.417000
   2488 O          24.4944    9.0009   37.8663 OW       793 WAT     -0.834000
   2489 H1         23.6549    8.8269   38.2921 HW       793 WAT      0.417000
   2490 H2         24.4591    9.9298   37.6379 HW       793 WAT      0.417000
   2491 O          12.9220   26.0891   42.2671 OW       794 WAT     -0.834000
   2492 H1         12.3536   26.0199   41.5000 HW       794 WAT      0.417000
   2493 H2         13.2539   26.9865   42.2390 HW       794 WAT      0.417000
   2494 O          10.3225   21.9416   49.8842 OW       795 WAT     -0.834000
   2495 H1         11.1536   21.6435   49.5147 HW       795 WAT      0.417000
   2496 H2         10.0722   22.6879   49.3396 HW       795 WAT      0.417000
   2497 O          28.4399   27.2658   21.9891 OW       796 WAT     -0.834000
   2498 H1         27.6725   27.4491   22.5311 HW       796 WAT      0.417000
   2499 H2         29.0881   26.9181   22.6017 HW       796 WAT      0.417000
   2500 O          10.8060   23.0077   23.8348 OW       797 WAT     -0.834000
   2501 H1         11.6327   23.2668   23.4280 HW       797 WAT      0.417000
   2502 H2         11.0588   22.6567   24.6887 HW       797 WAT      0.417000
   2503 O          23.0597   11.9428   11.1096 OW       798 WAT     -0.834000
   2504 H1         23.2672   12.5527   10.4017 HW       798 WAT      0.417000
   2505 H2         22.7257   11.1639   10.6645 HW       798 WAT      0.417000
   2506 O          28.8131   21.6689    4.0745 OW       799 WAT     -0.834000
   2507 H1         27.8626   21.7804    4.0931 HW       799 WAT      0.417000
   2508 H2         28.9600   20.9715    3.4355 HW       799 WAT      0.417000
   2509 O          25.3682   12.7397   44.6967 OW       800 WAT     -0.834000
   2510 H1         25.7558   13.6038   44.8352 HW       800 WAT      0.417000
   2511 H2         25.0383   12.4843   45.5582 HW       800 WAT      0.417000
   2512 O          27.0666    2.3805   23.8910 OW       801 WAT     -0.834000
   2513 H1         27.5712    1.6867   23.4664 HW       801 WAT      0.417000
   2514 H2         27.7275    2.9825   24.2328 HW       801 WAT      0.417000
   2515 O          12.2488   18.7810   24.4306 OW       802 WAT     -0.834000
   2516 H1         11.9097   19.4329   25.0440 HW       802 WAT      0.417000
   2517 H2         11.5044   18.5736   23.8657 HW       802 WAT      0.417000
   2518 O          23.3582    1.4926   47.6479 OW       803 WAT     -0.834000
   2519 H1         24.2559    1.5592   47.9733 HW       803 WAT      0.417000
   2520 H2         23.2112    0.5528   47.5412 HW       803 WAT      0.417000
   2521 O          12.8634   30.3416   31.3509 OW       804 WAT     -0.834000
   2522 H1         13.3327   30.2714   32.1821 HW       804 WAT      0.417000
   2523 H2         12.7274   29.4350   31.0753 HW       804 WAT      0.417000
   2524 O          13.1249   20.4881   51.7809 OW       805 WAT     -0.834000
   2525 H1         13.5800   19.6966   51.4933 HW       805 WAT      0.417000
   2526 H2         12.7898   20.8783   50.9736 HW       805 WAT      0.417000
   2527 O          29.2515   17.2687   17.3251 OW       806 WAT     -0.834000
   2528 H1         29.6452   17.7276   16.5830 HW       806 WAT      0.417000
   2529 H2         28.6578   17.9100   17.7157 HW       806 WAT      0.417000
   2530 O          17.5876   15.7527   29.4651 OW       807 WAT     -0.834000
   2531 H1         18.2638   16.2652   29.0221 HW       807 WAT      0.417000
   2532 H2         17.6867   14.8688   29.1112 HW       807 WAT      0.417000
   2533 O           2.9777   29.6126   49.2365 OW       808 WAT     -0.834000
   2534 H1          3.3130   30.4973   49.3820 HW       808 WAT      0.417000
   2535 H2          2.2700   29.5169   49.8738 HW       808 WAT      0.417000
   2536 O           7.2982   35.0936   28.2202 OW       809 WAT     -0.834000
   2537 H1          7.1156   34.2686   27.7705 HW       809 WAT      0.417000
   2538 H2          8.2009   35.0049   28.5261 HW       809 WAT      0.417000
   2539 O          26.6351   10.1754   11.1167 OW       810 WAT     -0.834000
   2540 H1         27.5768   10.3273   11.1959 HW       810 WAT      0.417000
   2541 H2         26.2837   10.3939   11.9798 HW       810 WAT      0.417000
   2542 O          14.8797    0.2082   24.1814 OW       811 WAT     -0.834000
   2543 H1         15.5286    0.1046   23.4854 HW       811 WAT      0.417000
   2544 H2         14.9490    1.1276   24.4385 HW       811 WAT      0.417000
   2545 O          20.8615   30.3477    8.9234 OW       812 WAT     -0.834000
   2546 H1         20.6008   29.5102    9.3065 HW       812 WAT      0.417000
   2547 H2         20.2518   30.4791    8.1973 HW       812 WAT      0.417000
   2548 O           3.2005    9.2361   30.1918 OW       813 WAT     -0.834000
   2549 H1          3.3652    9.9112   30.8500 HW       813 WAT      0.417000
   2550 H2          2.5324    9.6159   29.6211 HW       813 WAT      0.417000
   2551 O          24.8043   33.6531   49.7740 OW       814 WAT     -0.834000
   2552 H1         24.3377   33.2155   50.4860 HW       814 WAT      0.417000
   2553 H2         24.7785   33.0271   49.0503 HW       814 WAT      0.417000
   2554 O          11.3854   20.8445   41.1683 OW       815 WAT     -0.834000
   2555 H1         11.1593   21.3031   41.9775 HW       815 WAT      0.417000
   2556 H2         11.5533   19.9430   41.4429 HW       815 WAT      0.417000
   2557 O          28.7029    6.6675    0.2354 OW       816 WAT     -0.834000
   2558 H1         28.9975    5.7619    0.1388 HW       816 WAT      0.417000
   2559 H2         28.2300    6.6780    1.0676 HW       816 WAT      0.417000
   2560 O          24.8134   17.9411   18.4393 OW       817 WAT     -0.834000
   2561 H1         25.7678   17.9209   18.3688 HW       817 WAT      0.417000
   2562 H2         24.6448   18.3370   19.2944 HW       817 WAT      0.417000
   2563 O           2.3459   32.3438   13.7852 OW       818 WAT     -0.834000
   2564 H1          2.6378   31.6101   14.3262 HW       818 WAT      0.417000
   2565 H2          1.8591   31.9349   13.0696 HW       818 WAT      0.417000
   2566 O           4.2017    3.8607   29.8692 OW       819 WAT     -0.834000
   2567 H1          4.8448    3.7801   30.5736 HW       819 WAT      0.417000
   2568 H2          3.6584    4.6061   30.1250 HW       819 WAT      0.417000
   2569 O           5.1868    4.1181    4.7845 OW       820 WAT     -0.834000
   2570 H1          4.9629    3.4672    5.4496 HW       820 WAT      0.417000
   2571 H2          4.5478    3.9764    4.0860 HW       820 WAT      0.417000
   2572 O          30.5845   30.4048   36.1787 OW       821 WAT     -0.834000
   2573 H1         31.0681   30.2448   35.3683 HW       821 WAT      0.417000
   2574 H2         29.6816   30.1652   35.9701 HW       821 WAT      0.417000
   2575 O          16.8689   34.5836   19.2212 OW       822 WAT     -0.834000
   2576 H1         16.6618   34.3381   20.1229 HW       822 WAT      0.417000
   2577 H2         16.0438   34.4756   18.7481 HW       822 WAT      0.417000
   2578 O          14.5685   13.7916   29.3954 OW       823 WAT     -0.834000
   2579 H1         13.7381   13.3793   29.6336 HW       823 WAT      0.417000
   2580 H2         15.2280   13.3053   29.8900 HW       823 WAT      0.417000
   2581 O           8.7300   17.6368   13.2119 OW       824 WAT     -0.834000
   2582 H1          8.0891   17.7557   13.9128 HW       824 WAT      0.417000
   2583 H2          8.3977   16.8947   12.7068 HW       824 WAT      0.417000
   2584 O          14.6727   35.8379   17.8852 OW       825 WAT     -0.834000
   2585 H1         14.6341   36.4527   17.1525 HW       825 WAT      0.417000
   2586 H2         13.7894   35.8486   18.2537 HW       825 WAT      0.417000
   2587 O          29.8132   34.1230   24.0347 OW       826 WAT     -0.834000
   2588 H1         29.1526   34.5963   24.5404 HW       826 WAT      0.417000
   2589 H2         29.9893   33.3350   24.5489 HW       826 WAT      0.417000
   2590 O          26.1776   16.1109   12.5147 OW       827 WAT     -0.834000
   2591 H1         25.7223   15.5145   13.1091 HW       827 WAT      0.417000
   2592 H2         26.4311   15.5621   11.7725 HW       827 WAT      0.417000
   2593 O          20.4238    8.0258   47.7724 OW       828 WAT     -0.834000
   2594 H1         20.0912    8.4392   48.5691 HW       828 WAT      0.417000
   2595 H2         20.8386    7.2185   48.0766 HW       828 WAT      0.417000
   2596 O          32.5802    1.0044   27.6214 OW       829 WAT     -0.834000
   2597 H1         33.5307    0.9423   27.7163 HW       829 WAT      0.417000
   2598 H2         32.2373    0.7613   28.4814 HW       829 WAT      0.417000
   2599 O          14.6689   21.3743   13.7120 OW       830 WAT     -0.834000
   2600 H1         14.5145   22.2789   13.9843 HW       830 WAT      0.417000
   2601 H2         13.7942   21.0192   13.5538 HW       830 WAT      0.417000
   2602 O          35.8351   35.3281   29.8156 OW       831 WAT     -0.834000
   2603 H1         35.0153   35.1361   29.3603 HW       831 WAT      0.417000
   2604 H2         36.5187   35.0718   29.1965 HW       831 WAT      0.417000
   2605 O          20.7338   12.1877   25.7720 OW       832 WAT     -0.834000
   2606 H1         21.5046   11.8904   25.2886 HW       832 WAT      0.417000
   2607 H2         20.0541   11.5496   25.5551 HW       832 WAT      0.417000
   2608 O          10.9322    9.9943   32.9117 OW       833 WAT     -0.834000
   2609 H1         11.6208    9.3590   32.7153 HW       833 WAT      0.417000
   2610 H2         10.5402   10.1931   32.0614 HW       833 WAT      0.417000
   2611 O          34.8342   36.2202   38.0149 OW       834 WAT     -0.834000
   2612 H1         34.0552   36.6888   37.7153 HW       834 WAT      0.417000
   2613 H2         34.5565   35.3059   38.0722 HW       834 WAT      0.417000
   2614 O          16.0290    4.9696   23.2977 OW       835 WAT     -0.834000
   2615 H1         15.6541    5.7921   23.6127 HW       835 WAT      0.417000
   2616 H2         15.7848    4.9337   22.3729 HW       835 WAT      0.417000
   2617 O           4.8687   34.3167   24.8398 OW       836 WAT     -0.834000
   2618 H1          5.1557   33.4600   25.1559 HW       836 WAT      0.417000
   2619 H2          5.4131   34.9427   25.3173 HW       836 WAT      0.417000
   2620 O          33.3801   26.6737    1.9984 OW       837 WAT     -0.834000
   2621 H1         33.2381   25.7681    1.7227 HW       837 WAT      0.417000
   2622 H2         33.3632   27.1773    1.1846 HW       837 WAT      0.417000
   2623 O          13.1200    3.4157   48.2672 OW       838 WAT     -0.834000
   2624 H1         13.9595    3.4369   48.7266 HW       838 WAT      0.417000
   2625 H2         13.2396    4.0047   47.5223 HW       838 WAT      0.417000
   2626 O          12.4220   32.5688   28.0681 OW       839 WAT     -0.834000
   2627 H1         11.9123   32.3857   28.8574 HW       839 WAT      0.417000
   2628 H2         13.0701   31.8653   28.0330 HW       839 WAT      0.417000
   2629 O           7.6233   31.1234   21.4767 OW       840 WAT     -0.834000
   2630 H1          8.4234   31.5991   21.7000 HW       840 WAT      0.417000
   2631 H2          7.1387   31.7229   20.9093 HW       840 WAT      0.417000
   2632 O          27.0423   13.5772   28.0204 OW       841 WAT     -0.834000
   2633 H1         27.0666   12.7903   27.4760 HW       841 WAT      0.417000
   2634 H2         27.3441   14.2778   27.4422 HW       841 WAT      0.417000
   2635 O           2.0842    3.4458   21.8994 OW       842 WAT     -0.834000
   2636 H1          2.5193    4.2966   21.9542 HW       842 WAT      0.417000
   2637 H2          2.6902    2.8986   21.3999 HW       842 WAT      0.417000
   2638 O           3.2177   14.8570    7.8779 OW       843 WAT     -0.834000
   2639 H1          3.1161   15.6769    8.3613 HW       843 WAT      0.417000
   2640 H2          2.8601   14.1885    8.4623 HW       843 WAT      0.417000
   2641 O           8.0989   16.6191    2.2258 OW       844 WAT     -0.834000
   2642 H1          7.7487   17.4734    1.9734 HW       844 WAT      0.417000
   2643 H2          7.4729   15.9888    1.8695 HW       844 WAT      0.417000
   2644 O          11.8297    5.7688   27.1526 OW       845 WAT     -0.834000
   2645 H1         12.7800    5.6766   27.2221 HW       845 WAT      0.417000
   2646 H2         11.5701    6.1953   27.9693 HW       845 WAT      0.417000
   2647 O          29.2598    8.2700   12.3951 OW       846 WAT     -0.834000
   2648 H1         29.7438    7.7938   11.7204 HW       846 WAT      0.417000
   2649 H2         29.4035    7.7643   13.1950 HW       846 WAT      0.417000
   2650 O           0.1692   17.6620   34.0457 OW       847 WAT     -0.834000
   2651 H1          0.4812   16.7611   33.9603 HW       847 WAT      0.417000
   2652 H2          0.4707   18.0966   33.2479 HW       847 WAT      0.417000
   2653 O          28.0095   18.0369   22.7396 OW       848 WAT     -0.834000
   2654 H1         28.8206   18.0323   23.2479 HW       848 WAT      0.417000
   2655 H2         27.6589   18.9199   22.8560 HW       848 WAT      0.417000
   2656 O          22.2756    4.4789   28.9410 OW       849 WAT     -0.834000
   2657 H1         22.5443    4.0632   29.7603 HW       849 WAT      0.417000
   2658 H2         22.7933    5.2830   28.8994 HW       849 WAT      0.417000
   2659 O          33.4182   11.3908   31.0844 OW       850 WAT     -0.834000
   2660 H1         32.6904   11.1984   31.6756 HW       850 WAT      0.417000
   2661 H2         33.9995   10.6347   31.1661 HW       850 WAT      0.417000
   2662 O          36.1827   30.7636    6.7169 OW       851 WAT     -0.834000
   2663 H1         36.6604   30.6806    5.8916 HW       851 WAT      0.417000
   2664 H2         35.7995   31.6402    6.6847 HW       851 WAT      0.417000
   2665 O          29.6726   13.3646   48.5096 OW       852 WAT     -0.834000
   2666 H1         28.8902   12.9010   48.8083 HW       852 WAT      0.417000
   2667 H2         30.1639   12.7100   48.0131 HW       852 WAT      0.417000
   2668 O          22.3125   17.7017   27.7815 OW       853 WAT     -0.834000
   2669 H1         22.8877   17.2826   28.4216 HW       853 WAT      0.417000
   2670 H2         22.5041   17.2535   26.9577 HW       853 WAT      0.417000
   2671 O          32.3060   30.0863   33.6279 OW       854 WAT     -0.834000
   2672 H1         32.7895   29.6204   34.3100 HW       854 WAT      0.417000
   2673 H2         32.7537   29.8526   32.8148 HW       854 WAT      0.417000
   2674 O          13.3183    5.1282   19.4227 OW       855 WAT     -0.834000
   2675 H1         14.2084    4.9828   19.7433 HW       855 WAT      0.417000
   2676 H2         12.9061    5.6684   20.0968 HW       855 WAT      0.417000
   2677 O          16.4346   26.5043    0.2698 OW       856 WAT     -0.834000
   2678 H1         15.8424   27.1651   -0.0893 HW       856 WAT      0.417000
   2679 H2         15.8923   25.7208    0.3608 HW       856 WAT      0.417000
   2680 O          27.7105   14.0726   46.3127 OW       857 WAT     -0.834000
   2681 H1         28.6413   13.9887   46.5197 HW       857 WAT      0.417000
   2682 H2         27.2849   13.4021   46.8470 HW       857 WAT      0.417000
   2683 O           5.7299   30.5235   13.9400 OW       858 WAT     -0.834000
   2684 H1          5.6718   29.5741   14.0469 HW       858 WAT      0.417000
   2685 H2          5.4470   30.8774   14.7832 HW       858 WAT      0.417000
   2686 O          12.9930   35.1091   23.4253 OW       859 WAT     -0.834000
   2687 H1         13.5117   35.8435   23.7538 HW       859 WAT      0.417000
   2688 H2         13.2675   34.3640   23.9599 HW       859 WAT      0.417000
   2689 O           7.0889   35.6071   14.9303 OW       860 WAT     -0.834000
   2690 H1          6.4154   36.2065   14.6089 HW       860 WAT      0.417000
   2691 H2          7.8808   36.1423   14.9824 HW       860 WAT      0.417000
   2692 O           8.7762    0.2906    1.5318 OW       861 WAT     -0.834000
   2693 H1          9.3385    1.0652    1.5407 HW       861 WAT      0.417000
   2694 H2          7.9756    0.5807    1.0947 HW       861 WAT      0.417000
   2695 O          35.2526   15.6848    6.6595 OW       862 WAT     -0.834000
   2696 H1         35.3719   16.6200    6.8246 HW       862 WAT      0.417000
   2697 H2         34.3508   15.5074    6.9267 HW       862 WAT      0.417000
   2698 O          18.7508   34.4384   43.8945 OW       863 WAT     -0.834000
   2699 H1         19.7071   34.4454   43.9341 HW       863 WAT      0.417000
   2700 H2         18.5175   35.3133   43.5841 HW       863 WAT      0.417000
   2701 O          28.0797    2.8449    5.8205 OW       864 WAT     -0.834000
   2702 H1         27.5502    2.5834    6.5738 HW       864 WAT      0.417000
   2703 H2         27.4690    2.8353    5.0836 HW       864 WAT      0.417000
   2704 O          29.8385   15.8651   41.1033 OW       865 WAT     -0.834000
   2705 H1         30.6286   15.3249   41.0950 HW       865 WAT      0.417000
   2706 H2         29.3165   15.5149   41.8252 HW       865 WAT      0.417000
   2707 O           1.3422    3.1658   30.3590 OW       866 WAT     -0.834000
   2708 H1          2.2333    3.4871   30.2213 HW       866 WAT      0.417000
   2709 H2          1.3721    2.2503   30.0810 HW       866 WAT      0.417000
   2710 O          11.1750    4.8094   10.3683 OW       867 WAT     -0.834000
   2711 H1         10.7663    4.0075   10.6942 HW       867 WAT      0.417000
   2712 H2         11.7226    4.5196    9.6387 HW       867 WAT      0.417000
   2713 O           7.2705   20.5745   24.9670 OW       868 WAT     -0.834000
   2714 H1          7.8840   19.8404   24.9347 HW       868 WAT      0.417000
   2715 H2          7.1901   20.8596   24.0568 HW       868 WAT      0.417000
   2716 O          13.9864   29.2794   36.7201 OW       869 WAT     -0.834000
   2717 H1         14.0777   29.3352   35.7689 HW       869 WAT      0.417000
   2718 H2         13.3441   29.9546   36.9391 HW       869 WAT      0.417000
   2719 O          18.2000   27.4170   25.2686 OW       870 WAT     -0.834000
   2720 H1         18.5283   28.3072   25.1422 HW       870 WAT      0.417000
   2721 H2         18.3450   26.9864   24.4262 HW       870 WAT      0.417000
   2722 O           1.9272   17.8208   47.0700 OW       871 WAT     -0.834000
   2723 H1          1.0767   18.2559   47.1293 HW       871 WAT      0.417000
   2724 H2          2.5629   18.5364   47.0720 HW       871 WAT      0.417000
   2725 O           6.3730   15.7358   36.8607 OW       872 WAT     -0.834000
   2726 H1          7.3069   15.5264   36.8775 HW       872 WAT      0.417000
   2727 H2          6.0975   15.5304   35.9673 HW       872 WAT      0.417000
   2728 O           3.9422    3.7009   42.8177 OW       873 WAT     -0.834000
   2729 H1          3.0392    3.4578   42.6136 HW       873 WAT      0.417000
   2730 H2          4.0739    4.5343   42.3658 HW       873 WAT      0.417000
   2731 O          25.0325   19.8275   41.4274 OW       874 WAT     -0.834000
   2732 H1         24.2147   19.3341   41.4902 HW       874 WAT      0.417000
   2733 H2         25.6716   19.2931   41.8989 HW       874 WAT      0.417000
   2734 O          10.3045    5.6691   13.2395 OW       875 WAT     -0.834000
   2735 H1          9.6539    6.2986   12.9286 HW       875 WAT      0.417000
   2736 H2         10.1967    5.6632   14.1906 HW       875 WAT      0.417000
   2737 O          13.5361   20.2100   19.4748 OW       876 WAT     -0.834000
   2738 H1         13.6176   20.8796   20.1539 HW       876 WAT      0.417000
   2739 H2         13.7903   19.3959   19.9094 HW       876 WAT      0.417000
   2740 O           9.8620   32.1878   22.3313 OW       877 WAT     -0.834000
   2741 H1         10.1435   32.8976   21.7541 HW       877 WAT      0.417000
   2742 H2         10.5195   31.5033   22.2076 HW       877 WAT      0.417000
   2743 O          25.4098   36.1653   51.3268 OW       878 WAT     -0.834000
   2744 H1         25.6653   36.0078   50.4179 HW       878 WAT      0.417000
   2745 H2         26.1850   36.5569   51.7292 HW       878 WAT      0.417000
   2746 O          27.5445   31.8390   37.9597 OW       879 WAT     -0.834000
   2747 H1         26.6589   31.9782   38.2952 HW       879 WAT      0.417000
   2748 H2         28.0716   31.6656   38.7396 HW       879 WAT      0.417000
   2749 O           3.9165    5.0778   12.4406 OW       880 WAT     -0.834000
   2750 H1          3.4033    5.4814   13.1405 HW       880 WAT      0.417000
   2751 H2          4.7767    5.4927   12.5045 HW       880 WAT      0.417000
   2752 O          19.5194   11.4480    0.7491 OW       881 WAT     -0.834000
   2753 H1         19.8235   11.8731   -0.0529 HW       881 WAT      0.417000
   2754 H2         18.5650   11.4544    0.6765 HW       881 WAT      0.417000
   2755 O          35.5362    7.6802   49.3781 OW       882 WAT     -0.834000
   2756 H1         35.8663    7.3278   48.5516 HW       882 WAT      0.417000
   2757 H2         35.7544    7.0119   50.0276 HW       882 WAT      0.417000
   2758 O          28.7075   11.8235    0.3003 OW       883 WAT     -0.834000
   2759 H1         29.3841   12.3180   -0.1622 HW       883 WAT      0.417000
   2760 H2         28.7117   10.9627   -0.1182 HW       883 WAT      0.417000
   2761 O          10.2358   31.9027    4.9576 OW       884 WAT     -0.834000
   2762 H1         10.8582   32.5958    5.1778 HW       884 WAT      0.417000
   2763 H2         10.4092   31.2127    5.5980 HW       884 WAT      0.417000
   2764 O          24.2303   10.5867    7.6211 OW       885 WAT     -0.834000
   2765 H1         24.4013    9.9569    6.9209 HW       885 WAT      0.417000
   2766 H2         23.4241   10.2747    8.0322 HW       885 WAT      0.417000
   2767 O           9.3228    0.4847   15.3236 OW       886 WAT     -0.834000
   2768 H1          9.0492    1.1263   14.6681 HW       886 WAT      0.417000
   2769 H2          9.9886   -0.0413   14.8806 HW       886 WAT      0.417000
   2770 O          13.9141   18.1175   50.6610 OW       887 WAT     -0.834000
   2771 H1         13.5443   17.3263   51.0527 HW       887 WAT      0.417000
   2772 H2         13.8833   17.9549   49.7182 HW       887 WAT      0.417000
   2773 O           0.8794   21.5719    5.6574 OW       888 WAT     -0.834000
   2774 H1          0.5918   22.4788    5.7625 HW       888 WAT      0.417000
   2775 H2          1.6811   21.6336    5.1380 HW       888 WAT      0.417000
   2776 O          16.1053    1.9140   13.4835 OW       889 WAT     -0.834000
   2777 H1         16.2732    2.5075   12.7515 HW       889 WAT      0.417000
   2778 H2         15.8919    1.0777   13.0696 HW       889 WAT      0.417000
   2779 O           5.5607   25.8192   18.9218 OW       890 WAT     -0.834000
   2780 H1          5.2314   24.9205   18.9311 HW       890 WAT      0.417000
   2781 H2          6.0106   25.9181   19.7609 HW       890 WAT      0.417000
   2782 O           0.8701   10.2173   34.9455 OW       891 WAT     -0.834000
   2783 H1          1.5227    9.6930   35.4096 HW       891 WAT      0.417000
   2784 H2          0.0543   10.0599   35.4208 HW       891 WAT      0.417000
   2785 O          15.5230   31.6339   42.1001 OW       892 WAT     -0.834000
   2786 H1         15.9802   31.2991   41.3286 HW       892 WAT      0.417000
   2787 H2         14.8092   32.1633   41.7445 HW       892 WAT      0.417000
   2788 O          11.0902   23.1855   14.7403 OW       893 WAT     -0.834000
   2789 H1         11.3101   23.7247   15.5000 HW       893 WAT      0.417000
   2790 H2         10.5584   23.7573   14.1867 HW       893 WAT      0.417000
   2791 O          26.7969   27.8600    3.0353 OW       894 WAT     -0.834000
   2792 H1         26.3301   27.5501    3.8114 HW       894 WAT      0.417000
   2793 H2         27.3845   27.1400    2.8059 HW       894 WAT      0.417000
   2794 O          31.6979   31.9186   -0.0273 OW       895 WAT     -0.834000
   2795 H1         31.8265   32.4683    0.7457 HW       895 WAT      0.417000
   2796 H2         32.2199   32.3399   -0.7102 HW       895 WAT      0.417000
   2797 O          30.0877    6.6134    9.7286 OW       896 WAT     -0.834000
   2798 H1         29.8980    5.6793    9.6405 HW       896 WAT      0.417000
   2799 H2         29.3799    7.0475    9.2523 HW       896 WAT      0.417000
   2800 O          35.9508   27.9953   18.3078 OW       897 WAT     -0.834000
   2801 H1         35.4682   28.8075   18.4615 HW       897 WAT      0.417000
   2802 H2         36.1040   27.9828   17.3630 HW       897 WAT      0.417000
   2803 O          24.3367   36.7505   29.0806 OW       898 WAT     -0.834000
   2804 H1         23.4338   36.5280   29.3077 HW       898 WAT      0.417000
   2805 H2         24.3111   36.9244   28.1397 HW       898 WAT      0.417000
   2806 O          25.1040    4.3346   26.5310 OW       899 WAT     -0.834000
   2807 H1         24.1609    4.2155   26.4184 HW       899 WAT      0.417000
   2808 H2         25.2691    4.0916   27.4420 HW       899 WAT      0.417000
   2809 O          13.4663    4.6622   13.2905 OW       900 WAT     -0.834000
   2810 H1         13.9713    4.6619   14.1037 HW       900 WAT      0.417000
   2811 H2         13.1317    3.7685   13.2160 HW       900 WAT      0.417000
   2812 O          34.8947   29.9102   43.3991 OW       901 WAT     -0.834000
   2813 H1         34.8723   30.1329   42.4685 HW       901 WAT      0.417000
   2814 H2         33.9806   29.7400   43.6268 HW       901 WAT      0.417000
   2815 O          10.2181    4.9848   15.7836 OW       902 WAT     -0.834000
   2816 H1          9.3852    4.6184   16.0809 HW       902 WAT      0.417000
   2817 H2         10.6722    5.2319   16.5892 HW       902 WAT      0.417000
   2818 O          17.8412   27.2272   44.3972 OW       903 WAT     -0.834000
   2819 H1         18.3759   27.7711   44.9756 HW       903 WAT      0.417000
   2820 H2         17.1333   26.9070   44.9563 HW       903 WAT      0.417000
   2821 O          12.8455   22.8047    1.5308 OW       904 WAT     -0.834000
   2822 H1         12.5115   22.7013    2.4219 HW       904 WAT      0.417000
   2823 H2         12.8171   21.9225    1.1605 HW       904 WAT      0.417000
   2824 O          28.4728   23.3229   39.5475 OW       905 WAT     -0.834000
   2825 H1         28.7823   23.5041   38.6600 HW       905 WAT      0.417000
   2826 H2         28.0477   22.4677   39.4829 HW       905 WAT      0.417000
   2827 O          -0.0566    5.9943   16.9061 OW       906 WAT     -0.834000
   2828 H1          0.4874    6.7728   16.7868 HW       906 WAT      0.417000
   2829 H2          0.5230    5.3594   17.3270 HW       906 WAT      0.417000
   2830 O           9.0824   19.9409    9.3970 OW       907 WAT     -0.834000
   2831 H1          8.4244   20.4539    9.8663 HW       907 WAT      0.417000
   2832 H2          9.4687   19.3767   10.0669 HW       907 WAT      0.417000
   2833 O          12.7128   11.4835   46.1581 OW       908 WAT     -0.834000
   2834 H1         11.7928   11.6405   46.3705 HW       908 WAT      0.417000
   2835 H2         12.9269   12.1549   45.5103 HW       908 WAT      0.417000
   2836 O          13.0729   35.1421   27.7834 OW       909 WAT     -0.834000
   2837 H1         12.6127   34.4077   28.1898 HW       909 WAT      0.417000
   2838 H2         12.4762   35.4510   27.1018 HW       909 WAT      0.417000
   2839 O          16.4465   26.4998   15.3591 OW       910 WAT     -0.834000
   2840 H1         15.6209   26.1737   15.0009 HW       910 WAT      0.417000
   2841 H2         16.6090   25.9498   16.1254 HW       910 WAT      0.417000
   2842 O           0.5380   13.4238   30.4172 OW       911 WAT     -0.834000
   2843 H1          0.0126   13.7647   29.6934 HW       911 WAT      0.417000
   2844 H2          1.2971   13.0227   29.9940 HW       911 WAT      0.417000
   2845 O          30.0236   27.7377   27.6157 OW       912 WAT     -0.834000
   2846 H1         30.2736   26.8215   27.4960 HW       912 WAT      0.417000
   2847 H2         29.3143   27.8764   26.9881 HW       912 WAT      0.417000
   2848 O          22.7161   32.6003   24.4733 OW       913 WAT     -0.834000
   2849 H1         22.2850   31.8798   24.9329 HW       913 WAT      0.417000
   2850 H2         21.9977   33.1062   24.0937 HW       913 WAT      0.417000
   2851 O          24.8801    4.4228    5.9347 OW       914 WAT     -0.834000
   2852 H1         25.2830    4.0393    5.1558 HW       914 WAT      0.417000
   2853 H2         24.0118    4.7007    5.6430 HW       914 WAT      0.417000
   2854 O           9.1200   20.9364    0.6001 OW       915 WAT     -0.834000
   2855 H1          9.8753   20.8823    0.0145 HW       915 WAT      0.417000
   2856 H2          8.7459   21.8007    0.4292 HW       915 WAT      0.417000
   2857 O          30.0735   14.3175   36.2054 OW       916 WAT     -0.834000
   2858 H1         30.1709   14.9825   36.8870 HW       916 WAT      0.417000
   2859 H2         30.4491   13.5249   36.5888 HW       916 WAT      0.417000
   2860 O           9.7889    0.3466   34.7795 OW       917 WAT     -0.834000
   2861 H1          9.7241    0.1750   33.8400 HW       917 WAT      0.417000
   2862 H2          9.4639    1.2411   34.8825 HW       917 WAT      0.417000
   2863 O          13.0736   15.1967   27.8184 OW       918 WAT     -0.834000
   2864 H1         13.6455   14.6055   28.3078 HW       918 WAT      0.417000
   2865 H2         12.9030   15.9195   28.4223 HW       918 WAT      0.417000
   2866 O           7.9056   33.9095   11.2727 OW       919 WAT     -0.834000
   2867 H1          8.1027   34.1616   10.3706 HW       919 WAT      0.417000
   2868 H2          7.5580   33.0204   11.2025 HW       919 WAT      0.417000
   2869 O           5.0233   19.7014   44.8149 OW       920 WAT     -0.834000
   2870 H1          4.7218   19.6245   45.7201 HW       920 WAT      0.417000
   2871 H2          4.2198   19.7784   44.3005 HW       920 WAT      0.417000
   2872 O          31.2236   29.3951    5.5250 OW       921 WAT     -0.834000
   2873 H1         31.3082   29.4315    6.4778 HW       921 WAT      0.417000
   2874 H2         30.3801   29.8094    5.3434 HW       921 WAT      0.417000
   2875 O          13.8760   12.1451   37.6537 OW       922 WAT     -0.834000
   2876 H1         13.7630   11.4763   38.3292 HW       922 WAT      0.417000
   2877 H2         13.8681   12.9735   38.1332 HW       922 WAT      0.417000
   2878 O          33.8820   34.7850    9.6427 OW       923 WAT     -0.834000
   2879 H1         34.6284   34.5844   10.2074 HW       923 WAT      0.417000
   2880 H2         33.9952   35.7078    9.4149 HW       923 WAT      0.417000
   2881 O          35.3391   34.1355    4.5010 OW       924 WAT     -0.834000
   2882 H1         34.6978   34.2933    3.8081 HW       924 WAT      0.417000
   2883 H2         34.8171   34.0734    5.3009 HW       924 WAT      0.417000
   2884 O          34.3983   24.7227   32.0540 OW       925 WAT     -0.834000
   2885 H1         34.1067   25.5820   31.7495 HW       925 WAT      0.417000
   2886 H2         34.5147   24.2117   31.2530 HW       925 WAT      0.417000
   2887 O          30.5024   13.1948   27.4992 OW       926 WAT     -0.834000
   2888 H1         29.9981   12.4295   27.2231 HW       926 WAT      0.417000
   2889 H2         30.6407   13.6937   26.6941 HW       926 WAT      0.417000
   2890 O          10.2684   11.5793    0.7644 OW       927 WAT     -0.834000
   2891 H1         10.9999   11.9412    0.2642 HW       927 WAT      0.417000
   2892 H2         10.6521   11.3335    1.6061 HW       927 WAT      0.417000
   2893 O          24.4959   26.2545   26.7366 OW       928 WAT     -0.834000
   2894 H1         24.2079   25.3930   27.0384 HW       928 WAT      0.417000
   2895 H2         25.0028   26.0738   25.9450 HW       928 WAT      0.417000
   2896 O          15.6937   36.0594   40.7907 OW       929 WAT     -0.834000
   2897 H1         15.0314   36.7497   40.8233 HW       929 WAT      0.417000
   2898 H2         16.4448   36.4258   41.2575 HW       929 WAT      0.417000
   2899 O          35.2861    0.4540    1.7137 OW       930 WAT     -0.834000
   2900 H1         36.2350    0.5358    1.8090 HW       930 WAT      0.417000
   2901 H2         35.1274    0.5829    0.7786 HW       930 WAT      0.417000
   2902 O          20.3985   27.5427    9.6386 OW       931 WAT     -0.834000
   2903 H1         20.7077   27.5479   10.5444 HW       931 WAT      0.417000
   2904 H2         20.2540   26.6175    9.4401 HW       931 WAT      0.417000
   2905 O          13.1430    9.8217    1.2026 OW       932 WAT     -0.834000
   2906 H1         12.5905    9.1664    0.7766 HW       932 WAT      0.417000
   2907 H2         12.7180    9.9822    2.0452 HW       932 WAT      0.417000
   2908 O          23.6327   30.2855   41.6772 OW       933 WAT     -0.834000
   2909 H1         24.0355   29.6123   42.2257 HW       933 WAT      0.417000
   2910 H2         23.7939   29.9919   40.7805 HW       933 WAT      0.417000
   2911 O          10.4741   31.1085   51.1469 OW       934 WAT     -0.834000
   2912 H1         11.0993   31.7774   50.8678 HW       934 WAT      0.417000
   2913 H2         10.9649   30.5638   51.7622 HW       934 WAT      0.417000
   2914 O          18.8646   30.0169   41.0884 OW       935 WAT     -0.834000
   2915 H1         19.3763   29.2962   40.7208 HW       935 WAT      0.417000
   2916 H2         19.4343   30.3989   41.7561 HW       935 WAT      0.417000
   2917 O          35.5635    7.6821   18.7731 OW       936 WAT     -0.834000
   2918 H1         35.5183    7.0828   19.5181 HW       936 WAT      0.417000
   2919 H2         35.8999    7.1464   18.0548 HW       936 WAT      0.417000
   2920 O           0.6791   11.9881   20.5827 OW       937 WAT     -0.834000
   2921 H1          0.3576   11.4810   21.3282 HW       937 WAT      0.417000
   2922 H2          0.3794   12.8811   20.7533 HW       937 WAT      0.417000
   2923 O          27.3183    5.2767   15.3589 OW       938 WAT     -0.834000
   2924 H1         26.9231    4.4950   15.7448 HW       938 WAT      0.417000
   2925 H2         26.6076    5.6853   14.8647 HW       938 WAT      0.417000
   2926 O           1.4568   26.0362    9.7223 OW       939 WAT     -0.834000
   2927 H1          1.4491   25.8373   10.6585 HW       939 WAT      0.417000
   2928 H2          0.6888   26.5919    9.5891 HW       939 WAT      0.417000
   2929 O          13.8031    7.2607   48.3501 OW       940 WAT     -0.834000
   2930 H1         14.2706    7.7380   49.0355 HW       940 WAT      0.417000
   2931 H2         13.3893    7.9436   47.8223 HW       940 WAT      0.417000
   2932 O           4.6748    2.2639   36.9564 OW       941 WAT     -0.834000
   2933 H1          4.1987    2.8787   36.3983 HW       941 WAT      0.417000
   2934 H2          4.1700    2.2379   37.7693 HW       941 WAT      0.417000
   2935 O           5.2760   29.4393   33.1053 OW       942 WAT     -0.834000
   2936 H1          6.1805   29.2993   33.3854 HW       942 WAT      0.417000
   2937 H2          4.9073   30.0225   33.7688 HW       942 WAT      0.417000
   2938 O          19.8689   29.1338    3.8139 OW       943 WAT     -0.834000
   2939 H1         19.7263   28.6351    4.6184 HW       943 WAT      0.417000
   2940 H2         19.3259   28.6937    3.1599 HW       943 WAT      0.417000
   2941 O          24.1036   31.6620   28.0867 OW       944 WAT     -0.834000
   2942 H1         24.6374   32.2845   28.5805 HW       944 WAT      0.417000
   2943 H2         24.6608   31.3962   27.3552 HW       944 WAT      0.417000
   2944 O          10.7239   27.2498   16.5642 OW       945 WAT     -0.834000
   2945 H1          9.9422   27.3002   16.0142 HW       945 WAT      0.417000
   2946 H2         11.0563   28.1471   16.5908 HW       945 WAT      0.417000
   2947 O          29.3785   17.4155   20.3733 OW       946 WAT     -0.834000
   2948 H1         28.9345   17.8416   19.6401 HW       946 WAT      0.417000
   2949 H2         29.1690   17.9622   21.1306 HW       946 WAT      0.417000
   2950 O          29.5256    4.4953   12.4222 OW       947 WAT     -0.834000
   2951 H1         28.6458    4.4243   12.7924 HW       947 WAT      0.417000
   2952 H2         29.4002    4.3734   11.4811 HW       947 WAT      0.417000
   2953 O           2.8592   10.2284    5.7833 OW       948 WAT     -0.834000
   2954 H1          3.0847   11.1582    5.7539 HW       948 WAT      0.417000
   2955 H2          3.3871    9.8320    5.0901 HW       948 WAT      0.417000
   2956 O          22.6859   15.6633   19.0553 OW       949 WAT     -0.834000
   2957 H1         22.7698   16.6070   19.1919 HW       949 WAT      0.417000
   2958 H2         23.0927   15.2723   19.8285 HW       949 WAT      0.417000
   2959 O           0.2875   10.8622    6.6317 OW       950 WAT     -0.834000
   2960 H1          0.1556   11.7899    6.8271 HW       950 WAT      0.417000
   2961 H2          1.0202   10.8489    6.0158 HW       950 WAT      0.417000
   2962 O          33.3145   20.3715    4.5148 OW       951 WAT     -0.834000
   2963 H1         32.9155   19.7210    5.0926 HW       951 WAT      0.417000
   2964 H2         34.2273   20.0945    4.4363 HW       951 WAT      0.417000
   2965 O           6.6425    1.7383   46.0645 OW       952 WAT     -0.834000
   2966 H1          6.3614    2.4295   46.6641 HW       952 WAT      0.417000
   2967 H2          7.5002    2.0264   45.7521 HW       952 WAT      0.417000
   2968 O          10.3293   31.1697   36.9158 OW       953 WAT     -0.834000
   2969 H1         10.0257   31.7537   36.2208 HW       953 WAT      0.417000
   2970 H2          9.5770   31.0827   37.5012 HW       953 WAT      0.417000
   2971 O          30.0041    6.2976   15.2337 OW       954 WAT     -0.834000
   2972 H1         29.8374    6.4177   16.1686 HW       954 WAT      0.417000
   2973 H2         29.1600    6.0265   14.8729 HW       954 WAT      0.417000
   2974 O           5.2561   27.9892   14.8314 OW       955 WAT     -0.834000
   2975 H1          5.9409   28.1530   15.4798 HW       955 WAT      0.417000
   2976 H2          4.8715   27.1533   15.0952 HW       955 WAT      0.417000
   2977 O          11.4788   16.9444   45.3522 OW       956 WAT     -0.834000
   2978 H1         11.1338   16.7738   46.2286 HW       956 WAT      0.417000
   2979 H2         10.8549   16.5210   44.7625 HW       956 WAT      0.417000
   2980 O          21.7820   34.5731    9.3851 OW       957 WAT     -0.834000
   2981 H1         22.5215   34.4574    8.7885 HW       957 WAT      0.417000
   2982 H2         21.7135   35.5209    9.5007 HW       957 WAT      0.417000
   2983 O          13.7688    7.4453   38.6154 OW       958 WAT     -0.834000
   2984 H1         14.6557    7.5200   38.9675 HW       958 WAT      0.417000
   2985 H2         13.3667    8.2948   38.7970 HW       958 WAT      0.417000
   2986 O          34.7264   24.8591    4.8189 OW       959 WAT     -0.834000
   2987 H1         33.8957   25.3329    4.8611 HW       959 WAT      0.417000
   2988 H2         34.8526   24.6794    3.8872 HW       959 WAT      0.417000
   2989 O           7.0590   19.2705   28.0414 OW       960 WAT     -0.834000
   2990 H1          7.5869   19.1539   27.2516 HW       960 WAT      0.417000
   2991 H2          6.2691   18.7546   27.8799 HW       960 WAT      0.417000
   2992 O          27.4864   27.9104   13.8093 OW       961 WAT     -0.834000
   2993 H1         28.0135   27.1985   14.1720 HW       961 WAT      0.417000
   2994 H2         27.0569   27.5253   13.0455 HW       961 WAT      0.417000
   2995 O          21.5450   16.3709   38.8677 OW       962 WAT     -0.834000
   2996 H1         20.7592   16.1119   39.3490 HW       962 WAT      0.417000
   2997 H2         22.2703   16.0382   39.3963 HW       962 WAT      0.417000
   2998 O          31.1339   14.5723   45.7388 OW       963 WAT     -0.834000
   2999 H1         32.0643   14.7960   45.7157 HW       963 WAT      0.417000
   3000 H2         30.6863   15.3842   45.5006 HW       963 WAT      0.417000
   3001 O           8.7737    5.1438   43.8766 OW       964 WAT     -0.834000
   3002 H1          8.8617    4.2664   44.2489 HW       964 WAT      0.417000
   3003 H2          9.5854    5.5894   44.1190 HW       964 WAT      0.417000
   3004 O           6.9681   26.7365   48.0161 OW       965 WAT     -0.834000
   3005 H1          6.4181   26.4249   47.2973 HW       965 WAT      0.417000
   3006 H2          7.8629   26.5530   47.7300 HW       965 WAT      0.417000
   3007 O           5.1860    9.1581   49.2731 OW       966 WAT     -0.834000
   3008 H1          5.0317    8.2615   48.9755 HW       966 WAT      0.417000
   3009 H2          5.2402    9.0882   50.2262 HW       966 WAT      0.417000
   3010 O          19.3667    8.2078   50.3533 OW       967 WAT     -0.834000
   3011 H1         18.5707    8.2521   49.8235 HW       967 WAT      0.417000
   3012 H2         19.0787    7.8376   51.1877 HW       967 WAT      0.417000
   3013 O          29.0312    6.0831   42.1534 OW       968 WAT     -0.834000
   3014 H1         28.1336    6.2989   42.4062 HW       968 WAT      0.417000
   3015 H2         29.0545    6.2261   41.2073 HW       968 WAT      0.417000
   3016 O          16.6998   13.3836   21.3650 OW       969 WAT     -0.834000
   3017 H1         17.2372   13.6266   20.6111 HW       969 WAT      0.417000
   3018 H2         15.8442   13.7729   21.1847 HW       969 WAT      0.417000
   3019 O          33.6104   12.0235   12.6910 OW       970 WAT     -0.834000
   3020 H1         32.8083   11.5136   12.8041 HW       970 WAT      0.417000
   3021 H2         34.3164   11.4012   12.8656 HW       970 WAT      0.417000
   3022 O          18.4235   32.2045   11.3123 OW       971 WAT     -0.834000
   3023 H1         18.1097   31.4363   10.8353 HW       971 WAT      0.417000
   3024 H2         19.2857   32.3837   10.9371 HW       971 WAT      0.417000
   3025 O          10.7499   35.8290    6.8749 OW       972 WAT     -0.834000
   3026 H1         11.2101   35.0956    6.4668 HW       972 WAT      0.417000
   3027 H2          9.9355   35.4479    7.2031 HW       972 WAT      0.417000
   3028 O          35.0035   29.5561   13.6777 OW       973 WAT     -0.834000
   3029 H1         34.4889   28.7739   13.4789 HW       973 WAT      0.417000
   3030 H2         34.7073   29.8228   14.5480 HW       973 WAT      0.417000
   3031 O          27.9423   13.1703    7.2942 OW       974 WAT     -0.834000
   3032 H1         27.3902   13.1299    6.5132 HW       974 WAT      0.417000
   3033 H2         27.4119   12.7703    7.9833 HW       974 WAT      0.417000
   3034 O           0.5706   27.4906   37.6846 OW       975 WAT     -0.834000
   3035 H1         -0.3160   27.1717   37.8533 HW       975 WAT      0.417000
   3036 H2          0.4542   28.4132   37.4577 HW       975 WAT      0.417000
   3037 O          34.4311    8.3849   32.0789 OW       976 WAT     -0.834000
   3038 H1         34.4056    7.8887   31.2608 HW       976 WAT      0.417000
   3039 H2         35.3329    8.6999   32.1400 HW       976 WAT      0.417000
   3040 O          23.0397   31.8379   12.4390 OW       977 WAT     -0.834000
   3041 H1         22.7016   32.6858   12.7273 HW       977 WAT      0.417000
   3042 H2         22.6364   31.6980   11.5823 HW       977 WAT      0.417000
   3043 O          14.5962   22.3586   25.6282 OW       978 WAT     -0.834000
   3044 H1         14.3450   23.2640   25.8107 HW       978 WAT      0.417000
   3045 H2         14.8580   22.3636   24.7075 HW       978 WAT      0.417000
   3046 O          34.8871   10.6644   15.9426 OW       979 WAT     -0.834000
   3047 H1         34.7003   11.6001   16.0195 HW       979 WAT      0.417000
   3048 H2         35.3523   10.4459   16.7501 HW       979 WAT      0.417000
   3049 O          20.3960   25.5336    3.2636 OW       980 WAT     -0.834000
   3050 H1         20.9819   25.1295    3.9037 HW       980 WAT      0.417000
   3051 H2         20.9269   26.2134    2.8486 HW       980 WAT      0.417000
   3052 O          23.5552   13.3970    8.9087 OW       981 WAT     -0.834000
   3053 H1         23.2638   14.3046    8.8217 HW       981 WAT      0.417000
   3054 H2         23.9533   13.1911    8.0629 HW       981 WAT      0.417000
   3055 O          32.0020   13.5743   14.7738 OW       982 WAT     -0.834000
   3056 H1         31.4752   13.5223   13.9763 HW       982 WAT      0.417000
   3057 H2         31.4049   13.3081   15.4730 HW       982 WAT      0.417000
   3058 O           9.7485   36.3542   41.7115 OW       983 WAT     -0.834000
   3059 H1         10.5205   36.5221   41.1711 HW       983 WAT      0.417000
   3060 H2          9.0799   36.9446   41.3642 HW       983 WAT      0.417000
   3061 O          24.0953   35.3820   16.7004 OW       984 WAT     -0.834000
   3062 H1         24.3229   35.3853   15.7706 HW       984 WAT      0.417000
   3063 H2         23.2368   34.9601   16.7353 HW       984 WAT      0.417000
   3064 O           9.2571   11.1952   17.4137 OW       985 WAT     -0.834000
   3065 H1          9.7074   10.3536   17.4851 HW       985 WAT      0.417000
   3066 H2          9.7077   11.6482   16.7010 HW       985 WAT      0.417000
   3067 O           0.6108   35.3408   50.8832 OW       986 WAT     -0.834000
   3068 H1          0.5033   34.5024   50.4340 HW       986 WAT      0.417000
   3069 H2         -0.0328   35.9174   50.4715 HW       986 WAT      0.417000
   3070 O           5.7849   10.0887   10.5074 OW       987 WAT     -0.834000
   3071 H1          6.6980    9.9382   10.2628 HW       987 WAT      0.417000
   3072 H2          5.3599   10.3572    9.6928 HW       987 WAT      0.417000
   3073 O          20.1040   16.9563   25.5108 OW       988 WAT     -0.834000
   3074 H1         19.6247   16.4314   26.1518 HW       988 WAT      0.417000
   3075 H2         21.0235   16.7369   25.6611 HW       988 WAT      0.417000
   3076 O          14.3387   15.3099   21.1959 OW       989 WAT     -0.834000
   3077 H1         14.7818   16.0154   21.6673 HW       989 WAT      0.417000
   3078 H2         14.0585   15.7108   20.3731 HW       989 WAT      0.417000
   3079 O           7.0766   30.7923   46.2605 OW       990 WAT     -0.834000
   3080 H1          7.1507   30.0589   45.6500 HW       990 WAT      0.417000
   3081 H2          7.2342   31.5684   45.7228 HW       990 WAT      0.417000
   3082 O           6.2621   32.2245   26.8912 OW       991 WAT     -0.834000
   3083 H1          6.9291   32.2270   26.2047 HW       991 WAT      0.417000
   3084 H2          6.7064   31.8575   27.6555 HW       991 WAT      0.417000
   3085 O          24.6007   32.3242   19.3044 OW       992 WAT     -0.834000
   3086 H1         25.4659   32.1904   19.6912 HW       992 WAT      0.417000
   3087 H2         24.2493   33.0880   19.7618 HW       992 WAT      0.417000
   3088 O          21.2873   36.6417   18.5638 OW       993 WAT     -0.834000
   3089 H1         21.1192   36.5124   19.4972 HW       993 WAT      0.417000
   3090 H2         21.6306   35.8003   18.2634 HW       993 WAT      0.417000
   3091 O          16.6496   18.7895   24.3245 OW       994 WAT     -0.834000
   3092 H1         16.9158   17.8719   24.3837 HW       994 WAT      0.417000
   3093 H2         16.5709   19.0753   25.2346 HW       994 WAT      0.417000
   3094 O          36.2198    2.9758   32.5189 OW       995 WAT     -0.834000
   3095 H1         36.1660    3.7491   33.0805 HW       995 WAT      0.417000
   3096 H2         36.8825    3.1999   31.8655 HW       995 WAT      0.417000
   3097 O          18.0536   10.5296   14.7803 OW       996 WAT     -0.834000
   3098 H1         18.1209   10.2623   13.8636 HW       996 WAT      0.417000
   3099 H2         18.9538   10.5018   15.1046 HW       996 WAT      0.417000
   3100 O          32.0572    1.9311   34.8339 OW       997 WAT     -0.834000
   3101 H1         31.2703    2.4634   34.7171 HW       997 WAT      0.417000
   3102 H2         32.3672    1.7635   33.9439 HW       997 WAT      0.417000
   3103 O           1.7578   34.1935   16.5045 OW       998 WAT     -0.834000
   3104 H1          1.4019   33.7725   15.7220 HW       998 WAT      0.417000
   3105 H2          2.2310   33.4958   16.9577 HW       998 WAT      0.417000
   3106 O           2.5357   23.1322    1.7435 OW       999 WAT     -0.834000
   3107 H1          2.7216   22.7912    2.6184 HW       999 WAT      0.417000
   3108 H2          2.1578   22.3897    1.2723 HW       999 WAT      0.417000
   3109 O           3.2044   22.6796   37.4150 OW      1000 WAT     -0.834000
   3110 H1          2.9659   22.2289   36.6049 HW      1000 WAT      0.417000
   3111 H2          2.4363   22.5829   37.9780 HW      1000 WAT      0.417000
   3112 O          35.8038   26.6253   23.3211 OW      1001 WAT     -0.834000
   3113 H1         35.6810   26.2427   22.4524 HW      1001 WAT      0.417000
   3114 H2         36.7435   26.7992   23.3756 HW      1001 WAT      0.417000
   3115 O           9.3947    6.9789   31.1644 OW      1002 WAT     -0.834000
   3116 H1          8.5556    7.0582   31.6180 HW      1002 WAT      0.417000
   3117 H2          9.2604    7.4311   30.3315 HW      1002 WAT      0.417000
   3118 O           8.2872   32.5571   49.7037 OW      1003 WAT     -0.834000
   3119 H1          8.6379   32.5152   48.8140 HW      1003 WAT      0.417000
   3120 H2          7.7997   33.3805   49.7305 HW      1003 WAT      0.417000
   3121 O          24.6994   36.4831   22.5357 OW      1004 WAT     -0.834000
   3122 H1         24.7946   37.4327   22.4623 HW      1004 WAT      0.417000
   3123 H2         24.2583   36.3508   23.3748 HW      1004 WAT      0.417000
   3124 O          22.3241   35.0017   48.2450 OW      1005 WAT     -0.834000
   3125 H1         21.4061   34.7343   48.2897 HW      1005 WAT      0.417000
   3126 H2         22.7579   34.4834   48.9227 HW      1005 WAT      0.417000
   3127 O          27.0483   28.9998   32.5525 OW      1006 WAT     -0.834000
   3128 H1         27.1919   29.6955   33.1940 HW      1006 WAT      0.417000
   3129 H2         27.6182   29.2294   31.8185 HW      1006 WAT      0.417000
   3130 O           5.4247   27.8106   23.1350 OW      1007 WAT     -0.834000
   3131 H1          5.1275   28.6370   23.5157 HW      1007 WAT      0.417000
   3132 H2          5.7487   27.3060   23.8811 HW      1007 WAT      0.417000
   3133 O           0.5752   21.4157   49.6920 OW      1008 WAT     -0.834000
   3134 H1         -0.3436   21.3064   49.4469 HW      1008 WAT      0.417000
   3135 H2          0.9662   21.8825   48.9534 HW      1008 WAT      0.417000
   3136 O          20.5622    7.1279   33.7024 OW      1009 WAT     -0.834000
   3137 H1         20.1040    6.2990   33.5640 HW      1009 WAT      0.417000
   3138 H2         20.1035    7.7520   33.1401 HW      1009 WAT      0.417000
   3139 O          31.8711    4.4893    2.6849 OW      1010 WAT     -0.834000
   3140 H1         31.2389    4.6805    3.3777 HW      1010 WAT      0.417000
   3141 H2         32.5551    3.9793    3.1188 HW      1010 WAT      0.417000
   3142 O           7.2978    0.6976   18.6305 OW      1011 WAT     -0.834000
   3143 H1          6.6650    0.4156   19.2911 HW      1011 WAT      0.417000
   3144 H2          6.8020    1.2836   18.0586 HW      1011 WAT      0.417000
   3145 O          14.5180   10.2163   30.4294 OW      1012 WAT     -0.834000
   3146 H1         15.4718   10.2583   30.3603 HW      1012 WAT      0.417000
   3147 H2         14.2490   11.1217   30.5846 HW      1012 WAT      0.417000
   3148 O           4.4006   12.0066   21.7926 OW      1013 WAT     -0.834000
   3149 H1          5.0996   12.0772   22.4428 HW      1013 WAT      0.417000
   3150 H2          3.8389   11.3041   22.1203 HW      1013 WAT      0.417000
   3151 O          33.8144    0.9446   16.3228 OW      1014 WAT     -0.834000
   3152 H1         33.6941    0.6887   15.4083 HW      1014 WAT      0.417000
   3153 H2         33.1396    1.6057   16.4773 HW      1014 WAT      0.417000
   3154 O           2.5116   10.4618   16.2233 OW      1015 WAT     -0.834000
   3155 H1          3.4444   10.5993   16.3885 HW      1015 WAT      0.417000
   3156 H2          2.1070   11.3075   16.4164 HW      1015 WAT      0.417000
   3157 O          17.6412   30.6451   24.2366 OW      1016 WAT     -0.834000
   3158 H1         17.7905   31.1007   23.4082 HW      1016 WAT      0.417000
   3159 H2         16.7858   30.2291   24.1304 HW      1016 WAT      0.417000
   3160 O          10.9755   34.8575   14.3173 OW      1017 WAT     -0.834000
   3161 H1         10.8349   35.0360   13.3875 HW      1017 WAT      0.417000
   3162 H2         10.9697   33.9025   14.3814 HW      1017 WAT      0.417000
   3163 O           4.2385    4.5483   18.0698 OW      1018 WAT     -0.834000
   3164 H1          5.1758    4.7418   18.0847 HW      1018 WAT      0.417000
   3165 H2          4.1064    4.0665   17.2534 HW      1018 WAT      0.417000
   3166 O          12.2583    0.2499   19.0599 OW      1019 WAT     -0.834000
   3167 H1         11.4198    0.6483   19.2932 HW      1019 WAT      0.417000
   3168 H2         12.1889    0.0784   18.1207 HW      1019 WAT      0.417000
   3169 O          32.3826   21.0294   42.4749 OW      1020 WAT     -0.834000
   3170 H1         31.7872   21.6360   42.9152 HW      1020 WAT      0.417000
   3171 H2         32.8199   20.5634   43.1876 HW      1020 WAT      0.417000
   3172 O           2.2582    0.9039    2.5850 OW      1021 WAT     -0.834000
   3173 H1          2.5033    1.8284    2.5480 HW      1021 WAT      0.417000
   3174 H2          1.9558    0.7720    3.4835 HW      1021 WAT      0.417000
   3175 O          14.2314   17.0844   38.4946 OW      1022 WAT     -0.834000
   3176 H1         13.6728   17.1850   39.2654 HW      1022 WAT      0.417000
   3177 H2         14.1391   17.9119   38.0223 HW      1022 WAT      0.417000
   3178 O          32.0902   25.8246    5.2850 OW      1023 WAT     -0.834000
   3179 H1         31.5686   26.1792    6.0049 HW      1023 WAT      0.417000
   3180 H2         31.4585   25.3557    4.7397 HW      1023 WAT      0.417000
   3181 O          18.2398   30.3507   13.7162 OW      1024 WAT     -0.834000
   3182 H1         17.6046   30.7799   14.2894 HW      1024 WAT      0.417000
   3183 H2         18.3278   30.9434   12.9698 HW      1024 WAT      0.417000
   3184 O          33.7371   15.0226   45.3637 OW      1025 WAT     -0.834000
   3185 H1         34.1848   14.5080   44.6922 HW      1025 WAT      0.417000
   3186 H2         34.4366   15.3128   45.9492 HW      1025 WAT      0.417000
   3187 O          12.6030   10.6803   35.7175 OW      1026 WAT     -0.834000
   3188 H1         11.7108   10.9921   35.5663 HW      1026 WAT      0.417000
   3189 H2         12.8993   11.1661   36.4872 HW      1026 WAT      0.417000
   3190 O          27.0087   27.4140   36.7468 OW      1027 WAT     -0.834000
   3191 H1         27.6526   26.7421   36.5226 HW      1027 WAT      0.417000
   3192 H2         26.4055   26.9766   37.3476 HW      1027 WAT      0.417000
   3193 O          18.8575    0.1164   10.1779 OW      1028 WAT     -0.834000
   3194 H1         17.9565    0.1718    9.8598 HW      1028 WAT      0.417000
   3195 H2         18.9920    0.9325   10.6599 HW      1028 WAT      0.417000
   3196 O          29.3792    4.2007   39.6942 OW      1029 WAT     -0.834000
   3197 H1         30.1781    4.4354   40.1663 HW      1029 WAT      0.417000
   3198 H2         29.2259    4.9369   39.1020 HW      1029 WAT      0.417000
   3199 O          16.6384   14.1069   24.3594 OW      1030 WAT     -0.834000
   3200 H1         15.8771   14.5005   24.7856 HW      1030 WAT      0.417000
   3201 H2         16.2869   13.7046   23.5652 HW      1030 WAT      0.417000
   3202 O           9.7007    1.5279   38.7610 OW      1031 WAT     -0.834000
   3203 H1          8.9683    1.1501   38.2740 HW      1031 WAT      0.417000
   3204 H2          9.3091    1.8447   39.5749 HW      1031 WAT      0.417000
   3205 O          18.6633   36.2918   39.5877 OW      1032 WAT     -0.834000
   3206 H1         18.0966   36.1513   40.3462 HW      1032 WAT      0.417000
   3207 H2         19.5083   35.9259   39.8490 HW      1032 WAT      0.417000
   3208 O          21.3159   20.5689   20.0906 OW      1033 WAT     -0.834000
   3209 H1         21.4775   21.3832   20.5670 HW      1033 WAT      0.417000
   3210 H2         20.3634   20.5259   20.0060 HW      1033 WAT      0.417000
   3211 O           5.5043   19.5774   20.3879 OW      1034 WAT     -0.834000
   3212 H1          5.8008   18.7168   20.0916 HW      1034 WAT      0.417000
   3213 H2          5.3896   20.0816   19.5824 HW      1034 WAT      0.417000
   3214 O           9.7306   19.9896   44.9395 OW      1035 WAT     -0.834000
   3215 H1          9.2580   19.3324   44.4287 HW      1035 WAT      0.417000
   3216 H2          9.2371   20.7985   44.8040 HW      1035 WAT      0.417000
   3217 O          32.8353    3.5085   29.7569 OW      1036 WAT     -0.834000
   3218 H1         32.3112    3.2447   29.0006 HW      1036 WAT      0.417000
   3219 H2         33.7120    3.6547   29.4016 HW      1036 WAT      0.417000
   3220 O          16.1868    5.5612   20.6618 OW      1037 WAT     -0.834000
   3221 H1         16.9781    5.2577   20.2169 HW      1037 WAT      0.417000
   3222 H2         16.1044    6.4794   20.4044 HW      1037 WAT      0.417000
   3223 O          16.7598   19.7418   50.3397 OW      1038 WAT     -0.834000
   3224 H1         15.9057   19.6440   50.7607 HW      1038 WAT      0.417000
   3225 H2         17.3917   19.5496   51.0325 HW      1038 WAT      0.417000
   3226 O          32.0607   19.2930   32.1975 OW      1039 WAT     -0.834000
   3227 H1         31.4552   18.6412   32.5508 HW      1039 WAT      0.417000
   3228 H2         32.9288   18.9668   32.4344 HW      1039 WAT      0.417000
   3229 O           1.5073   32.5495   26.0639 OW      1040 WAT     -0.834000
   3230 H1          1.1340   32.6929   25.1942 HW      1040 WAT      0.417000
   3231 H2          0.7596   32.6101   26.6584 HW      1040 WAT      0.417000
   3232 O          19.7991    0.3378   13.0872 OW      1041 WAT     -0.834000
   3233 H1         18.9370    0.7050   13.2828 HW      1041 WAT      0.417000
   3234 H2         19.6200   -0.5626   12.8161 HW      1041 WAT      0.417000
   3235 O          30.3417   17.6217   33.5488 OW      1042 WAT     -0.834000
   3236 H1         29.4289   17.3344   33.5735 HW      1042 WAT      0.417000
   3237 H2         30.6253   17.5970   34.4627 HW      1042 WAT      0.417000
   3238 O          28.5469   22.7799   26.1520 OW      1043 WAT     -0.834000
   3239 H1         29.1000   22.5646   25.4011 HW      1043 WAT      0.417000
   3240 H2         29.1641   22.9452   26.8646 HW      1043 WAT      0.417000
   3241 O           8.3999    9.5496    2.3766 OW      1044 WAT     -0.834000
   3242 H1          7.5966   10.0523    2.5121 HW      1044 WAT      0.417000
   3243 H2          8.6610    9.7527    1.4784 HW      1044 WAT      0.417000
   3244 O          22.0692    3.7569   22.7972 OW      1045 WAT     -0.834000
   3245 H1         21.6893    3.8509   21.9237 HW      1045 WAT      0.417000
   3246 H2         22.9940    3.9747   22.6809 HW      1045 WAT      0.417000
   3247 O           5.2388   21.8047   48.9439 OW      1046 WAT     -0.834000
   3248 H1          4.9612   22.1212   49.8035 HW      1046 WAT      0.417000
   3249 H2          5.7951   21.0495   49.1350 HW      1046 WAT      0.417000
   3250 O          22.9767    8.5846   46.3289 OW      1047 WAT     -0.834000
   3251 H1         22.1306    8.1807   46.5220 HW      1047 WAT      0.417000
   3252 H2         22.8804    8.9295   45.4412 HW      1047 WAT      0.417000
   3253 O           0.8203   36.6592   23.1107 OW      1048 WAT     -0.834000
   3254 H1          1.4522   37.2799   23.4736 HW      1048 WAT      0.417000
   3255 H2          1.2976   36.2130   22.4112 HW      1048 WAT      0.417000
   3256 O          25.0766   28.9528   43.7754 OW      1049 WAT     -0.834000
   3257 H1         24.2708   28.6783   44.2130 HW      1049 WAT      0.417000
   3258 H2         25.7764   28.5388   44.2804 HW      1049 WAT      0.417000
   3259 O          15.6910   31.3246   44.6913 OW      1050 WAT     -0.834000
   3260 H1         15.5989   31.4221   43.7435 HW      1050 WAT      0.417000
   3261 H2         16.6336   31.3816   44.8475 HW      1050 WAT      0.417000
   3262 O          10.8130   36.2633   26.0943 OW      1051 WAT     -0.834000
   3263 H1         10.8263   35.9671   25.1842 HW      1051 WAT      0.417000
   3264 H2         10.1257   35.7400   26.5065 HW      1051 WAT      0.417000
   3265 O          15.4830   35.6027   45.8835 OW      1052 WAT     -0.834000
   3266 H1         15.0304   35.8934   46.6752 HW      1052 WAT      0.417000
   3267 H2         14.8485   35.0421   45.4370 HW      1052 WAT      0.417000
   3268 O          20.6416   11.9536   20.3246 OW      1053 WAT     -0.834000
   3269 H1         20.3919   11.0745   20.0397 HW      1053 WAT      0.417000
   3270 H2         21.2441   11.8070   21.0538 HW      1053 WAT      0.417000
   3271 O           2.4813   31.4082    8.2653 OW      1054 WAT     -0.834000
   3272 H1          3.2686   30.8642    8.2865 HW      1054 WAT      0.417000
   3273 H2          1.7650   30.8003    8.4485 HW      1054 WAT      0.417000
   3274 O          20.5430   12.9674    8.7094 OW      1055 WAT     -0.834000
   3275 H1         19.9951   12.1846    8.6528 HW      1055 WAT      0.417000
   3276 H2         21.4399   12.6351    8.6740 HW      1055 WAT      0.417000
   3277 O           5.1161   31.3844   37.9899 OW      1056 WAT     -0.834000
   3278 H1          6.0344   31.6285   38.1056 HW      1056 WAT      0.417000
   3279 H2          4.9111   31.6424   37.0912 HW      1056 WAT      0.417000
   3280 O          17.1103   24.1169    9.6685 OW      1057 WAT     -0.834000
   3281 H1         16.7949   23.4321   10.2582 HW      1057 WAT      0.417000
   3282 H2         16.6751   24.9136    9.9721 HW      1057 WAT      0.417000
   3283 O          26.8227   27.4479    7.9013 OW      1058 WAT     -0.834000
   3284 H1         26.5344   28.3303    8.1347 HW      1058 WAT      0.417000
   3285 H2         26.0149   26.9366    7.8540 HW      1058 WAT      0.417000
   3286 O          10.4157   30.1152   19.7590 OW      1059 WAT     -0.834000
   3287 H1         10.8997   30.2576   20.5725 HW      1059 WAT      0.417000
   3288 H2         10.7699   30.7657   19.1526 HW      1059 WAT      0.417000
   3289 O           9.1499    2.2910   51.1175 OW      1060 WAT     -0.834000
   3290 H1          9.4433    3.1403   51.4475 HW      1060 WAT      0.417000
   3291 H2          9.7944    2.0581   50.4492 HW      1060 WAT      0.417000
   3292 O           0.7780   28.9465   43.5890 OW      1061 WAT     -0.834000
   3293 H1         -0.1429   29.2077   43.5920 HW      1061 WAT      0.417000
   3294 H2          0.7926   28.1261   43.0960 HW      1061 WAT      0.417000
   3295 O          26.3498    6.6974   17.8750 OW      1062 WAT     -0.834000
   3296 H1         26.5958    6.3924   17.0016 HW      1062 WAT      0.417000
   3297 H2         25.8259    7.4826   17.7157 HW      1062 WAT      0.417000
   3298 O          26.6842    2.9407   16.2985 OW      1063 WAT     -0.834000
   3299 H1         26.6248    2.3740   17.0676 HW      1063 WAT      0.417000
   3300 H2         26.3561    2.4022   15.5784 HW      1063 WAT      0.417000
   3301 O          28.5922   19.4008   44.9519 OW      1064 WAT     -0.834000
   3302 H1         28.3011   19.6505   44.0749 HW      1064 WAT      0.417000
   3303 H2         29.2403   20.0648   45.1872 HW      1064 WAT      0.417000
   3304 O          13.7636   33.6906    9.3703 OW      1065 WAT     -0.834000
   3305 H1         13.3973   33.6223    8.4885 HW      1065 WAT      0.417000
   3306 H2         14.2399   32.8699    9.4960 HW      1065 WAT      0.417000
   3307 O           6.0349   17.4866   11.0102 OW      1066 WAT     -0.834000
   3308 H1          5.5603   18.2480   10.6766 HW      1066 WAT      0.417000
   3309 H2          5.6938   17.3608   11.8956 HW      1066 WAT      0.417000
   3310 O          33.3893    3.0199   44.5378 OW      1067 WAT     -0.834000
   3311 H1         32.5484    3.1208   44.9840 HW      1067 WAT      0.417000
   3312 H2         33.2037    2.4296   43.8076 HW      1067 WAT      0.417000
   3313 O          20.6703   33.6190   51.5861 OW      1068 WAT     -0.834000
   3314 H1         20.9991   32.9197   51.0213 HW      1068 WAT      0.417000
   3315 H2         19.7215   33.6018   51.4610 HW      1068 WAT      0.417000
   3316 O          13.0802   30.2346   49.4255 OW      1069 WAT     -0.834000
   3317 H1         12.1780   30.3334   49.1214 HW      1069 WAT      0.417000
   3318 H2         13.6145   30.5506   48.6969 HW      1069 WAT      0.417000
   3319 O           6.6131   35.7509    5.3605 OW      1070 WAT     -0.834000
   3320 H1          7.1343   36.4822    5.6919 HW      1070 WAT      0.417000
   3321 H2          6.3674   36.0145    4.4737 HW      1070 WAT      0.417000
   3322 O           9.7460    2.6020    2.8694 OW      1071 WAT     -0.834000
   3323 H1          9.0188    3.1394    3.1835 HW      1071 WAT      0.417000
   3324 H2         10.3527    3.2277    2.4737 HW      1071 WAT      0.417000
   3325 O          16.8879    7.3439   26.0721 OW      1072 WAT     -0.834000
   3326 H1         16.1202    7.8548   25.8158 HW      1072 WAT      0.417000
   3327 H2         17.5031    7.4560   25.3473 HW      1072 WAT      0.417000
   3328 O          26.8217   17.5374   45.6204 OW      1073 WAT     -0.834000
   3329 H1         26.8219   17.1575   46.4990 HW      1073 WAT      0.417000
   3330 H2         27.4532   18.2550   45.6696 HW      1073 WAT      0.417000
   3331 O          23.1171   11.6136   30.7939 OW      1074 WAT     -0.834000
   3332 H1         22.5938   12.4047   30.6650 HW      1074 WAT      0.417000
   3333 H2         23.3756   11.3509   29.9105 HW      1074 WAT      0.417000
   3334 O          11.5307    2.2015   26.0267 OW      1075 WAT     -0.834000
   3335 H1         12.4233    2.1640   25.6830 HW      1075 WAT      0.417000
   3336 H2         11.1909    1.3146   25.9078 HW      1075 WAT      0.417000
   3337 O          25.9660   25.3539   20.9904 OW      1076 WAT     -0.834000
   3338 H1         25.1277   25.0162   20.6751 HW      1076 WAT      0.417000
   3339 H2         25.8717   26.3055   20.9493 HW      1076 WAT      0.417000
   3340 O          27.2475   12.8285   23.6424 OW      1077 WAT     -0.834000
   3341 H1         27.9365   12.1921   23.8333 HW      1077 WAT      0.417000
   3342 H2         27.7147   13.6513   23.4981 HW      1077 WAT      0.417000
   3343 O           3.1746   27.2113   38.6356 OW      1078 WAT     -0.834000
   3344 H1          3.3483   26.3195   38.9370 HW      1078 WAT      0.417000
   3345 H2          2.2313   27.2300   38.4741 HW      1078 WAT      0.417000
   3346 O          34.9132    1.3827   23.1225 OW      1079 WAT     -0.834000
   3347 H1         35.5528    0.6828   23.2539 HW      1079 WAT      0.417000
   3348 H2         34.7207    1.6999   24.0049 HW      1079 WAT      0.417000
   3349 O          26.9801   14.3934    3.3543 OW      1080 WAT     -0.834000
   3350 H1         26.7523   13.9900    4.1919 HW      1080 WAT      0.417000
   3351 H2         27.8902   14.1372    3.2048 HW      1080 WAT      0.417000
   3352 O          11.3846    8.2685   11.6001 OW      1081 WAT     -0.834000
   3353 H1         11.4243    8.7704   12.4142 HW      1081 WAT      0.417000
   3354 H2         11.4764    8.9248   10.9094 HW      1081 WAT      0.417000
   3355 O          31.2456   10.8556   32.5885 OW      1082 WAT     -0.834000
   3356 H1         31.2451    9.9927   32.1742 HW      1082 WAT      0.417000
   3357 H2         30.4048   11.2405   32.3414 HW      1082 WAT      0.417000
   3358 O          35.8669   33.3044   14.0852 OW      1083 WAT     -0.834000
   3359 H1         36.1873   32.6328   14.6872 HW      1083 WAT      0.417000
   3360 H2         35.2383   32.8461   13.5276 HW      1083 WAT      0.417000
   3361 O           6.7381   26.9063   25.3720 OW      1084 WAT     -0.834000
   3362 H1          6.6611   26.7336   26.3103 HW      1084 WAT      0.417000
   3363 H2          7.2065   26.1464   25.0263 HW      1084 WAT      0.417000
   3364 O          24.7909    0.1143    5.9591 OW      1085 WAT     -0.834000
   3365 H1         25.2454   -0.1509    5.1595 HW      1085 WAT      0.417000
   3366 H2         25.4744    0.5020    6.5057 HW      1085 WAT      0.417000
   3367 O          35.3895   27.5642   15.4431 OW      1086 WAT     -0.834000
   3368 H1         35.0356   26.7687   15.0453 HW      1086 WAT      0.417000
   3369 H2         36.2598   27.6587   15.0561 HW      1086 WAT      0.417000
   3370 O          15.8868   23.4781   16.0551 OW      1087 WAT     -0.834000
   3371 H1         15.5601   22.8152   16.6634 HW      1087 WAT      0.417000
   3372 H2         16.5041   23.9949   16.5729 HW      1087 WAT      0.417000
   3373 O           9.3115    6.6483   35.6107 OW      1088 WAT     -0.834000
   3374 H1         10.0729    6.1477   35.3176 HW      1088 WAT      0.417000
   3375 H2          9.6807    7.3683   36.1222 HW      1088 WAT      0.417000
   3376 O           3.2812   13.6838   37.1541 OW      1089 WAT     -0.834000
   3377 H1          3.6451   14.0882   36.3665 HW      1089 WAT      0.417000
   3378 H2          3.0063   12.8119   36.8704 HW      1089 WAT      0.417000
   3379 O          18.7711   33.8444   15.1050 OW      1090 WAT     -0.834000
   3380 H1         18.7668   33.2249   15.8347 HW      1090 WAT      0.417000
   3381 H2         19.2040   34.6233   15.4546 HW      1090 WAT      0.417000
   3382 O          12.5123   19.2763   46.5163 OW      1091 WAT     -0.834000
   3383 H1         11.9990   18.7700   45.8866 HW      1091 WAT      0.417000
   3384 H2         13.1395   18.6480   46.8741 HW      1091 WAT      0.417000
   3385 O          33.7975    1.2396   32.5103 OW      1092 WAT     -0.834000
   3386 H1         33.9684    2.1660   32.3409 HW      1092 WAT      0.417000
   3387 H2         34.6045    0.9166   32.9112 HW      1092 WAT      0.417000
   3388 O          12.8595    8.8324   46.3810 OW      1093 WAT     -0.834000
   3389 H1         12.0030    8.6814   45.9813 HW      1093 WAT      0.417000
   3390 H2         12.9968    9.7765   46.3038 HW      1093 WAT      0.417000
   3391 O           7.0522   29.6346   48.7622 OW      1094 WAT     -0.834000
   3392 H1          7.1959   30.0408   47.9074 HW      1094 WAT      0.417000
   3393 H2          7.0301   28.6951   48.5803 HW      1094 WAT      0.417000
   3394 O           9.1896   32.1550   34.3575 OW      1095 WAT     -0.834000
   3395 H1          9.0218   31.3386   33.8868 HW      1095 WAT      0.417000
   3396 H2          9.2340   32.8218   33.6722 HW      1095 WAT      0.417000
   3397 O          12.1275   36.1625   16.6772 OW      1096 WAT     -0.834000
   3398 H1         12.7442   36.0201   15.9591 HW      1096 WAT      0.417000
   3399 H2         11.3779   35.6071   16.4629 HW      1096 WAT      0.417000
   3400 O          29.3138   28.2961   19.7887 OW      1097 WAT     -0.834000
   3401 H1         28.7814   29.0904   19.7447 HW      1097 WAT      0.417000
   3402 H2         28.9546   27.8078   20.5295 HW      1097 WAT      0.417000
   3403 O          23.5511    5.0354   45.9220 OW      1098 WAT     -0.834000
   3404 H1         24.4122    5.1804   45.5299 HW      1098 WAT      0.417000
   3405 H2         22.9328    5.3725   45.2736 HW      1098 WAT      0.417000
   3406 O           2.9658    5.7168    6.1902 OW      1099 WAT     -0.834000
   3407 H1          3.1869    4.7906    6.2869 HW      1099 WAT      0.417000
   3408 H2          3.2027    5.9266    5.2869 HW      1099 WAT      0.417000
   3409 O           9.2254   28.5715   43.7334 OW      1100 WAT     -0.834000
   3410 H1          8.9112   27.8297   43.2164 HW      1100 WAT      0.417000
   3411 H2          9.0074   28.3431   44.6370 HW      1100 WAT      0.417000
   3412 O          21.0516   31.4225   42.6493 OW      1101 WAT     -0.834000
   3413 H1         21.2060   32.2587   42.2098 HW      1101 WAT      0.417000
   3414 H2         21.8365   30.9066   42.4650 HW      1101 WAT      0.417000
   3415 O          19.0191   20.0156    6.4653 OW      1102 WAT     -0.834000
   3416 H1         18.4971   20.7949    6.6564 HW      1102 WAT      0.417000
   3417 H2         18.5354   19.5676    5.7714 HW      1102 WAT      0.417000
   3418 O           9.3547   13.7114   18.9232 OW      1103 WAT     -0.834000
   3419 H1          8.6308   13.7236   19.5494 HW      1103 WAT      0.417000
   3420 H2          9.3338   12.8302   18.5499 HW      1103 WAT      0.417000
   3421 O           4.5886   20.3816    1.3586 OW      1104 WAT     -0.834000
   3422 H1          5.5360   20.2502    1.3979 HW      1104 WAT      0.417000
   3423 H2          4.4745   21.1276    0.7698 HW      1104 WAT      0.417000
   3424 O          25.1894   25.6974   45.1704 OW      1105 WAT     -0.834000
   3425 H1         24.3583   25.9319   44.7573 HW      1105 WAT      0.417000
   3426 H2         24.9549   25.0370   45.8224 HW      1105 WAT      0.417000
   3427 O           1.3192   33.9160    8.3233 OW      1106 WAT     -0.834000
   3428 H1          2.0657   34.4824    8.1282 HW      1106 WAT      0.417000
   3429 H2          1.6710   33.0276    8.2658 HW      1106 WAT      0.417000
   3430 O          36.1742    8.4287   42.3580 OW      1107 WAT     -0.834000
   3431 H1         36.9220    9.0260   42.3474 HW      1107 WAT      0.417000
   3432 H2         35.4314    8.9702   42.0911 HW      1107 WAT      0.417000
   3433 O          18.0271   31.5487   21.8055 OW      1108 WAT     -0.834000
   3434 H1         17.6720   32.4127   22.0143 HW      1108 WAT      0.417000
   3435 H2         18.8838   31.7290   21.4185 HW      1108 WAT      0.417000
   3436 O          11.7059    4.1069   42.6468 OW      1109 WAT     -0.834000
   3437 H1         11.3803    4.8181   43.1986 HW      1109 WAT      0.417000
   3438 H2         12.5007    4.4592   42.2462 HW      1109 WAT      0.417000
   3439 O          34.5980   14.6145   12.2490 OW      1110 WAT     -0.834000
   3440 H1         34.1121   13.8248   12.4864 HW      1110 WAT      0.417000
   3441 H2         35.5102   14.3286   12.1996 HW      1110 WAT      0.417000
   3442 O           8.4935   13.2634   13.8605 OW      1111 WAT     -0.834000
   3443 H1          7.6342   12.8530   13.7629 HW      1111 WAT      0.417000
   3444 H2          8.6452   13.7032   13.0239 HW      1111 WAT      0.417000
   3445 O           6.1414    5.3813   45.5377 OW      1112 WAT     -0.834000
   3446 H1          6.8265    5.9414   45.9026 HW      1112 WAT      0.417000
   3447 H2          6.4757    5.1227   44.6788 HW      1112 WAT      0.417000
   3448 O           4.8245   34.3898   15.3092 OW      1113 WAT     -0.834000
   3449 H1          5.7807   34.4312   15.3197 HW      1113 WAT      0.417000
   3450 H2          4.5503   35.0176   15.9777 HW      1113 WAT      0.417000
   3451 O          28.3687   26.6663    5.9717 OW      1114 WAT     -0.834000
   3452 H1         27.7626   26.9048    6.6731 HW      1114 WAT      0.417000
   3453 H2         29.2376   26.7969    6.3513 HW      1114 WAT      0.417000
   3454 O          27.0320    1.8810   45.8790 OW      1115 WAT     -0.834000
   3455 H1         27.0158    1.6060   46.7957 HW      1115 WAT      0.417000
   3456 H2         26.9192    2.8309   45.9118 HW      1115 WAT      0.417000
   3457 O          23.2069    7.0279   50.0410 OW      1116 WAT     -0.834000
   3458 H1         23.6651    6.8062   50.8516 HW      1116 WAT      0.417000
   3459 H2         22.4607    6.4289   50.0161 HW      1116 WAT      0.417000
   3460 O          23.4756    1.1489    0.1924 OW      1117 WAT     -0.834000
   3461 H1         23.0078    0.3152    0.1441 HW      1117 WAT      0.417000
   3462 H2         24.3715    0.9075    0.4275 HW      1117 WAT      0.417000
   3463 O           3.4998   20.2165   22.4596 OW      1118 WAT     -0.834000
   3464 H1          3.2838   21.1490   22.4631 HW      1118 WAT      0.417000
   3465 H2          4.0559   20.1023   21.6889 HW      1118 WAT      0.417000
   3466 O           9.3078   14.6819   11.6919 OW      1119 WAT     -0.834000
   3467 H1          8.9095   15.0644   10.9101 HW      1119 WAT      0.417000
   3468 H2         10.1466   14.3350   11.3881 HW      1119 WAT      0.417000
   3469 O           7.9847   16.7459    9.4167 OW      1120 WAT     -0.834000
   3470 H1          7.2882   16.7526   10.0732 HW      1120 WAT      0.417000
   3471 H2          7.7496   17.4488    8.8109 HW      1120 WAT      0.417000
   3472 O          30.0615    0.4848   12.4515 OW      1121 WAT     -0.834000
   3473 H1         30.1750    0.5513   13.3996 HW      1121 WAT      0.417000
   3474 H2         30.2600   -0.4296   12.2500 HW      1121 WAT      0.417000
   3475 O          30.4248   12.1806    8.4777 OW      1122 WAT     -0.834000
   3476 H1         30.2440   11.2426    8.5380 HW      1122 WAT      0.417000
   3477 H2         29.8850   12.4822    7.7471 HW      1122 WAT      0.417000
   3478 O           7.9100   17.4699   39.2894 OW      1123 WAT     -0.834000
   3479 H1          8.1851   16.6629   39.7244 HW      1123 WAT      0.417000
   3480 H2          8.5212   17.5690   38.5595 HW      1123 WAT      0.417000
   3481 O           2.6033    3.9456   10.1708 OW      1124 WAT     -0.834000
   3482 H1          3.0324    4.4371   10.8712 HW      1124 WAT      0.417000
   3483 H2          3.2903    3.8093    9.5183 HW      1124 WAT      0.417000
   3484 O           0.8748    2.5299   35.4094 OW      1125 WAT     -0.834000
   3485 H1          1.0640    1.6589   35.7584 HW      1125 WAT      0.417000
   3486 H2          0.4662    2.3639   34.5598 HW      1125 WAT      0.417000
   3487 O          23.1581   36.5943   38.6202 OW      1126 WAT     -0.834000
   3488 H1         23.4153   36.6367   37.6991 HW      1126 WAT      0.417000
   3489 H2         23.9348   36.8828   39.0993 HW      1126 WAT      0.417000
   3490 O          11.6252    0.5670   37.1408 OW      1127 WAT     -0.834000
   3491 H1         11.0482    0.1069   36.5311 HW      1127 WAT      0.417000
   3492 H2         11.0423    1.1471   37.6306 HW      1127 WAT      0.417000
   3493 O          12.9953   33.0588   25.2224 OW      1128 WAT     -0.834000
   3494 H1         12.7701   33.0960   26.1520 HW      1128 WAT      0.417000
   3495 H2         12.6341   32.2250   24.9216 HW      1128 WAT      0.417000
   3496 O          34.4103    5.9623   20.6464 OW      1129 WAT     -0.834000
   3497 H1         34.9348    5.2795   21.0647 HW      1129 WAT      0.417000
   3498 H2         33.8840    5.4960   19.9970 HW      1129 WAT      0.417000
   3499 O           6.0885    2.9002   21.1386 OW      1130 WAT     -0.834000
   3500 H1          6.4707    3.4807   21.7968 HW      1130 WAT      0.417000
   3501 H2          6.5499    3.1194   20.3290 HW      1130 WAT      0.417000
   3502 O          34.8063   28.1413    5.2937 OW      1131 WAT     -0.834000
   3503 H1         35.6478   27.9493    4.8798 HW      1131 WAT      0.417000
   3504 H2         35.0308   28.6731    6.0572 HW      1131 WAT      0.417000
   3505 O          24.6369   12.5738   13.2377 OW      1132 WAT     -0.834000
   3506 H1         25.5023   12.8861   12.9735 HW      1132 WAT      0.417000
   3507 H2         24.2048   12.3417   12.4157 HW      1132 WAT      0.417000
   3508 O          19.7674   19.9455   24.5491 OW      1133 WAT     -0.834000
   3509 H1         19.0482   20.2983   24.0251 HW      1133 WAT      0.417000
   3510 H2         19.5990   19.0039   24.5838 HW      1133 WAT      0.417000
   3511 O           4.2507    9.2233   46.3820 OW      1134 WAT     -0.834000
   3512 H1          3.7305    9.5967   47.0934 HW      1134 WAT      0.417000
   3513 H2          3.6357    8.6701   45.9004 HW      1134 WAT      0.417000
   3514 O          25.8106   26.0903   39.3682 OW      1135 WAT     -0.834000
   3515 H1         24.9039   25.7878   39.4198 HW      1135 WAT      0.417000
   3516 H2         26.1063   26.1173   40.2782 HW      1135 WAT      0.417000
   3517 O          10.0728   33.3910   40.8823 OW      1136 WAT     -0.834000
   3518 H1         10.4189   33.4628   39.9928 HW      1136 WAT      0.417000
   3519 H2          9.5548   34.1869   41.0027 HW      1136 WAT      0.417000
   3520 O          35.4042   20.7957   15.2095 OW      1137 WAT     -0.834000
   3521 H1         35.3695   19.9754   14.7175 HW      1137 WAT      0.417000
   3522 H2         34.6930   20.7234   15.8461 HW      1137 WAT      0.417000
   3523 O           0.4391   24.1722    6.6539 OW      1138 WAT     -0.834000
   3524 H1         -0.5140   24.2571    6.6752 HW      1138 WAT      0.417000
   3525 H2          0.7623   25.0345    6.9150 HW      1138 WAT      0.417000
   3526 O          21.3682    5.5790   48.4101 OW      1139 WAT     -0.834000
   3527 H1         21.9702    5.6510   47.6694 HW      1139 WAT      0.417000
   3528 H2         21.2483    4.6370   48.5306 HW      1139 WAT      0.417000
   3529 O          33.1989   29.8791   31.0835 OW      1140 WAT     -0.834000
   3530 H1         33.6650   30.6821   31.3166 HW      1140 WAT      0.417000
   3531 H2         32.4836   30.1726   30.5192 HW      1140 WAT      0.417000
   3532 O          14.3649    2.3255   17.9066 OW      1141 WAT     -0.834000
   3533 H1         13.9191    2.5201   18.7310 HW      1141 WAT      0.417000
   3534 H2         13.6645    2.3048   17.2546 HW      1141 WAT      0.417000
   3535 O          20.8059    3.4408   42.9678 OW      1142 WAT     -0.834000
   3536 H1         20.8540    2.9660   43.7976 HW      1142 WAT      0.417000
   3537 H2         20.7350    2.7553   42.3034 HW      1142 WAT      0.417000
   3538 O          36.4513   13.0937   24.0607 OW      1143 WAT     -0.834000
   3539 H1         36.2061   13.5195   23.2393 HW      1143 WAT      0.417000
   3540 H2         35.7286   13.2893   24.6570 HW      1143 WAT      0.417000
   3541 O          29.3915   14.7499   22.3867 OW      1144 WAT     -0.834000
   3542 H1         29.4873   15.4735   21.7673 HW      1144 WAT      0.417000
   3543 H2         30.1075   14.1527   22.1699 HW      1144 WAT      0.417000
   3544 O          21.8852   35.9998   44.6296 OW      1145 WAT     -0.834000
   3545 H1         22.6758   36.3548   44.2231 HW      1145 WAT      0.417000
   3546 H2         21.9277   35.0596   44.4550 HW      1145 WAT      0.417000
   3547 O          23.5075    4.2636   13.7895 OW      1146 WAT     -0.834000
   3548 H1         23.8468    4.4379   12.9116 HW      1146 WAT      0.417000
   3549 H2         23.1313    3.3854   13.7309 HW      1146 WAT      0.417000
   3550 O          11.5686   14.8846    6.0685 OW      1147 WAT     -0.834000
   3551 H1         10.9949   14.9759    5.3077 HW      1147 WAT      0.417000
   3552 H2         12.0269   15.7230    6.1249 HW      1147 WAT      0.417000
   3553 O           8.9717   28.0873   51.2849 OW      1148 WAT     -0.834000
   3554 H1          8.4927   28.7692   50.8141 HW      1148 WAT      0.417000
   3555 H2          8.2930   27.5884   51.7396 HW      1148 WAT      0.417000
   3556 O          13.5384   30.9258   19.0595 OW      1149 WAT     -0.834000
   3557 H1         14.3356   31.4553   19.0387 HW      1149 WAT      0.417000
   3558 H2         13.1777   31.0013   18.1760 HW      1149 WAT      0.417000
   3559 O           1.6364   15.0102   43.2484 OW      1150 WAT     -0.834000
   3560 H1          2.0547   15.7127   43.7462 HW      1150 WAT      0.417000
   3561 H2          1.7046   15.2900   42.3356 HW      1150 WAT      0.417000
   3562 O          28.1605   36.7902   19.2353 OW      1151 WAT     -0.834000
   3563 H1         27.2592   36.7027   18.9249 HW      1151 WAT      0.417000
   3564 H2         28.1177   36.5586   20.1631 HW      1151 WAT      0.417000
   3565 O           5.8776    0.1202   21.3142 OW      1152 WAT     -0.834000
   3566 H1          5.1554   -0.4457   21.5870 HW      1152 WAT      0.417000
   3567 H2          5.5053    1.0020   21.3172 HW      1152 WAT      0.417000
   3568 O          10.5221   20.0485   26.7222 OW      1153 WAT     -0.834000
   3569 H1          9.8155   20.5923   27.0704 HW      1153 WAT      0.417000
   3570 H2         10.6567   19.3749   27.3888 HW      1153 WAT      0.417000
   3571 O          10.3016    3.8275   46.5005 OW      1154 WAT     -0.834000
   3572 H1         10.9852    3.4761   47.0711 HW      1154 WAT      0.417000
   3573 H2          9.9278    4.5565   46.9956 HW      1154 WAT      0.417000
   3574 O          17.2388    2.4041   21.1953 OW      1155 WAT     -0.834000
   3575 H1         16.2976    2.4159   21.3690 HW      1155 WAT      0.417000
   3576 H2         17.3309    1.8621   20.4117 HW      1155 WAT      0.417000
   3577 O          35.6885    5.2154   24.5533 OW      1156 WAT     -0.834000
   3578 H1         35.6716    5.0573   23.6094 HW      1156 WAT      0.417000
   3579 H2         34.7662    5.2510   24.8068 HW      1156 WAT      0.417000
   3580 O           9.4397   26.3748   31.4798 OW      1157 WAT     -0.834000
   3581 H1          9.2129   25.4857   31.2071 HW      1157 WAT      0.417000
   3582 H2         10.2033   26.2641   32.0463 HW      1157 WAT      0.417000
   3583 O          27.2683   33.0293   20.0314 OW      1158 WAT     -0.834000
   3584 H1         27.0382   33.4509   19.2034 HW      1158 WAT      0.417000
   3585 H2         27.9537   33.5859   20.4012 HW      1158 WAT      0.417000
   3586 O          23.6385   23.7375   14.5127 OW      1159 WAT     -0.834000
   3587 H1         24.0967   24.5396   14.2620 HW      1159 WAT      0.417000
   3588 H2         23.9688   23.0738   13.9072 HW      1159 WAT      0.417000
   3589 O          27.3997   17.6571   38.2443 OW      1160 WAT     -0.834000
   3590 H1         26.7437   17.7703   37.5565 HW      1160 WAT      0.417000
   3591 H2         27.9326   18.4509   38.1999 HW      1160 WAT      0.417000
   3592 O          30.7390   18.7671    0.7364 OW      1161 WAT     -0.834000
   3593 H1         31.5241   19.0474    1.2067 HW      1161 WAT      0.417000
   3594 H2         30.0783   19.4222    0.9613 HW      1161 WAT      0.417000
   3595 O           6.3680   35.9519   31.0666 OW      1162 WAT     -0.834000
   3596 H1          6.5391   35.7708   30.1424 HW      1162 WAT      0.417000
   3597 H2          5.4588   36.2507   31.0878 HW      1162 WAT      0.417000
   3598 O          17.5284   35.7678   34.7423 OW      1163 WAT     -0.834000
   3599 H1         17.8395   36.0909   35.5879 HW      1163 WAT      0.417000
   3600 H2         17.3281   34.8447   34.8977 HW      1163 WAT      0.417000
   3601 O           0.7531   27.2604    3.8665 OW      1164 WAT     -0.834000
   3602 H1          0.8884   26.3141    3.8172 HW      1164 WAT      0.417000
   3603 H2          0.5525   27.5208    2.9675 HW      1164 WAT      0.417000
   3604 O           7.8389   25.9848    8.0288 OW      1165 WAT     -0.834000
   3605 H1          7.5740   25.9475    7.1097 HW      1165 WAT      0.417000
   3606 H2          8.7831   26.1392    7.9998 HW      1165 WAT      0.417000
   3607 O          10.7292    9.1590   21.7015 OW      1166 WAT     -0.834000
   3608 H1         10.5161    9.8607   22.3166 HW      1166 WAT      0.417000
   3609 H2         11.6679    9.0138   21.8196 HW      1166 WAT      0.417000
   3610 O           6.8784   27.1704   12.4858 OW      1167 WAT     -0.834000
   3611 H1          6.7171   26.8871   11.5859 HW      1167 WAT      0.417000
   3612 H2          6.0062   27.2478   12.8726 HW      1167 WAT      0.417000
   3613 O          24.5157   20.8141   46.5739 OW      1168 WAT     -0.834000
   3614 H1         25.3155   20.7047   47.0883 HW      1168 WAT      0.417000
   3615 H2         24.6624   20.2874   45.7881 HW      1168 WAT      0.417000
   3616 O          17.5557   30.3145    9.5040 OW      1169 WAT     -0.834000
   3617 H1         17.1906   29.5127    9.8781 HW      1169 WAT      0.417000
   3618 H2         17.9893   30.0279    8.7002 HW      1169 WAT      0.417000
   3619 O          18.1777   27.8772    1.8747 OW      1170 WAT     -0.834000
   3620 H1         17.8526   27.4370    2.6601 HW      1170 WAT      0.417000
   3621 H2         17.5338   27.6669    1.1984 HW      1170 WAT      0.417000
   3622 O          17.8016    5.9816   14.9524 OW      1171 WAT     -0.834000
   3623 H1         17.2318    5.2891   15.2872 HW      1171 WAT      0.417000
   3624 H2         18.6473    5.5529   14.8204 HW      1171 WAT      0.417000
   3625 O          28.0480   20.6260   39.2806 OW      1172 WAT     -0.834000
   3626 H1         28.8563   20.2564   39.6360 HW      1172 WAT      0.417000
   3627 H2         28.1767   20.6157   38.3322 HW      1172 WAT      0.417000
   3628 O          21.0385   12.4587    3.2619 OW      1173 WAT     -0.834000
   3629 H1         20.7659   11.8134    2.6096 HW      1173 WAT      0.417000
   3630 H2         20.4921   12.2729    4.0256 HW      1173 WAT      0.417000
   3631 O          36.9743    6.5666   32.4523 OW      1174 WAT     -0.834000
   3632 H1         36.3229    6.5397   33.1531 HW      1174 WAT      0.417000
   3633 H2         36.4687    6.4349   31.6502 HW      1174 WAT      0.417000
   3634 O          10.6052    8.9856   45.0729 OW      1175 WAT     -0.834000
   3635 H1         10.0645    9.2263   45.8252 HW      1175 WAT      0.417000
   3636 H2         10.2821    9.5364   44.3598 HW      1175 WAT      0.417000
   3637 O          15.3420   13.8723   15.8851 OW      1176 WAT     -0.834000
   3638 H1         15.0862   14.3522   15.0974 HW      1176 WAT      0.417000
   3639 H2         15.8683   14.4962   16.3852 HW      1176 WAT      0.417000
   3640 O           1.8501   26.7696   42.0885 OW      1177 WAT     -0.834000
   3641 H1          2.0547   26.3911   42.9435 HW      1177 WAT      0.417000
   3642 H2          1.9364   26.0388   41.4763 HW      1177 WAT      0.417000
   3643 O          11.9034   15.1570   47.5988 OW      1178 WAT     -0.834000
   3644 H1         11.8034   14.3497   47.0943 HW      1178 WAT      0.417000
   3645 H2         11.2255   15.1040   48.2725 HW      1178 WAT      0.417000
   3646 O           0.9466   13.6023    2.9333 OW      1179 WAT     -0.834000
   3647 H1          0.5246   13.5660    2.0749 HW      1179 WAT      0.417000
   3648 H2          0.2793   13.9698    3.5129 HW      1179 WAT      0.417000
   3649 O          25.5863    6.2486   43.5818 OW      1180 WAT     -0.834000
   3650 H1         25.6709    6.9785   44.1953 HW      1180 WAT      0.417000
   3651 H2         25.3682    6.6619   42.7465 HW      1180 WAT      0.417000
   3652 O          31.6031   16.3695   10.5208 OW      1181 WAT     -0.834000
   3653 H1         31.8816   15.4851   10.2829 HW      1181 WAT      0.417000
   3654 H2         30.6810   16.4067   10.2668 HW      1181 WAT      0.417000
   3655 O           0.2741   20.8292   37.5467 OW      1182 WAT     -0.834000
   3656 H1          0.3399   19.9059   37.3032 HW      1182 WAT      0.417000
   3657 H2         -0.0919   21.2559   36.7719 HW      1182 WAT      0.417000
   3658 O          28.8472    6.9052   20.7277 OW      1183 WAT     -0.834000
   3659 H1         29.4124    6.3476   21.2624 HW      1183 WAT      0.417000
   3660 H2         28.3568    6.2931   20.1790 HW      1183 WAT      0.417000
   3661 O          14.2603   23.2400   48.9663 OW      1184 WAT     -0.834000
   3662 H1         14.7035   23.3917   48.1315 HW      1184 WAT      0.417000
   3663 H2         14.9703   23.1600   49.6033 HW      1184 WAT      0.417000
   3664 O          12.8513   17.8924   20.5452 OW      1185 WAT     -0.834000
   3665 H1         12.0600   18.3285   20.8613 HW      1185 WAT      0.417000
   3666 H2         13.3088   17.6203   21.3407 HW      1185 WAT      0.417000
   3667 O           6.1629   16.7977   20.0957 OW      1186 WAT     -0.834000
   3668 H1          6.2262   16.3163   20.9206 HW      1186 WAT      0.417000
   3669 H2          6.7036   16.2976   19.4844 HW      1186 WAT      0.417000
   3670 O           7.0927   24.1710   34.9849 OW      1187 WAT     -0.834000
   3671 H1          7.7604   23.5167   35.1905 HW      1187 WAT      0.417000
   3672 H2          6.5766   24.2470   35.7874 HW      1187 WAT      0.417000
   3673 O          10.0855   26.1378   49.5989 OW      1188 WAT     -0.834000
   3674 H1          9.7515   26.7213   50.2802 HW      1188 WAT      0.417000
   3675 H2         10.8580   25.7301   49.9902 HW      1188 WAT      0.417000
   3676 O           9.6666    1.7450   17.9114 OW      1189 WAT     -0.834000
   3677 H1          8.8801    1.3026   18.2306 HW      1189 WAT      0.417000
   3678 H2          9.8353    1.3469   17.0573 HW      1189 WAT      0.417000
   3679 O          31.6995   29.9757   26.7287 OW      1190 WAT     -0.834000
   3680 H1         31.1694   30.4254   26.0706 HW      1190 WAT      0.417000
   3681 H2         31.1983   29.1890   26.9433 HW      1190 WAT      0.417000
   3682 O           3.3027    7.2231    9.1478 OW      1191 WAT     -0.834000
   3683 H1          2.8724    6.4888    8.7098 HW      1191 WAT      0.417000
   3684 H2          4.0457    6.8279    9.6039 HW      1191 WAT      0.417000
   3685 O           6.2026   25.9862    3.9920 OW      1192 WAT     -0.834000
   3686 H1          5.3095   25.7013    3.7986 HW      1192 WAT      0.417000
   3687 H2          6.1033   26.8804    4.3188 HW      1192 WAT      0.417000
   3688 O          26.5637   19.3898   13.4691 OW      1193 WAT     -0.834000
   3689 H1         26.4230   19.4931   14.4103 HW      1193 WAT      0.417000
   3690 H2         26.0532   18.6149   13.2343 HW      1193 WAT      0.417000
   3691 O           7.1455   20.6370   38.6088 OW      1194 WAT     -0.834000
   3692 H1          7.3175   21.5766   38.5469 HW      1194 WAT      0.417000
   3693 H2          6.5356   20.4575   37.8932 HW      1194 WAT      0.417000
   3694 O          12.1358   10.4391   24.0500 OW      1195 WAT     -0.834000
   3695 H1         13.0740   10.3414   23.8871 HW      1195 WAT      0.417000
   3696 H2         11.9530    9.8334   24.7682 HW      1195 WAT      0.417000
   3697 O          35.7295    3.9045   48.1555 OW      1196 WAT     -0.834000
   3698 H1         36.2157    3.1490   47.8251 HW      1196 WAT      0.417000
   3699 H2         35.1473    3.5414   48.8229 HW      1196 WAT      0.417000
   3700 O          27.0366   32.3268   45.9401 OW      1197 WAT     -0.834000
   3701 H1         26.3800   32.4724   46.6212 HW      1197 WAT      0.417000
   3702 H2         27.4898   31.5284   46.2109 HW      1197 WAT      0.417000
   3703 O           7.7330   23.4050    9.6805 OW      1198 WAT     -0.834000
   3704 H1          8.4894   23.3730   10.2662 HW      1198 WAT      0.417000
   3705 H2          7.8631   24.2007    9.1645 HW      1198 WAT      0.417000
   3706 O          27.5727    9.4891   43.0723 OW      1199 WAT     -0.834000
   3707 H1         27.4110    9.6111   44.0079 HW      1199 WAT      0.417000
   3708 H2         28.4648    9.8097   42.9396 HW      1199 WAT      0.417000
   3709 O          19.5902   36.1494    1.5800 OW      1200 WAT     -0.834000
   3710 H1         20.2797   35.5225    1.3612 HW      1200 WAT      0.417000
   3711 H2         20.0474   36.9852    1.6738 HW      1200 WAT      0.417000
   3712 O          14.8252    9.6962   41.0814 OW      1201 WAT     -0.834000
   3713 H1         14.2781   10.3300   41.5453 HW      1201 WAT      0.417000
   3714 H2         15.7195    9.9147   41.3433 HW      1201 WAT      0.417000
   3715 O           3.2832    1.4502   17.2545 OW      1202 WAT     -0.834000
   3716 H1          3.6739    0.5815   17.3495 HW      1202 WAT      0.417000
   3717 H2          3.7594    1.8486   16.5260 HW      1202 WAT      0.417000
   3718 O           6.3006    2.1020   16.4860 OW      1203 WAT     -0.834000
   3719 H1          6.1264    1.6480   15.6615 HW      1203 WAT      0.417000
   3720 H2          6.9603    2.7587   16.2630 HW      1203 WAT      0.417000
   3721 O          15.0582    3.6878   33.4896 OW      1204 WAT     -0.834000
   3722 H1         14.5075    3.4189   34.2250 HW      1204 WAT      0.417000
   3723 H2         14.9602    4.6393   33.4525 HW      1204 WAT      0.417000
   3724 O           7.3533   27.4548   41.5051 OW      1205 WAT     -0.834000
   3725 H1          6.5199   27.8939   41.6749 HW      1205 WAT      0.417000
   3726 H2          7.6404   27.8039   40.6613 HW      1205 WAT      0.417000
   3727 O          13.7309   25.6016   12.2360 OW      1206 WAT     -0.834000
   3728 H1         13.0857   26.3078   12.1992 HW      1206 WAT      0.417000
   3729 H2         13.8924   25.4731   13.1706 HW      1206 WAT      0.417000
   3730 O           3.4078   14.0354   32.0161 OW      1207 WAT     -0.834000
   3731 H1          3.4378   14.9916   31.9840 HW      1207 WAT      0.417000
   3732 H2          2.5095   13.8326   32.2772 HW      1207 WAT      0.417000
   3733 O          22.7772   18.2504   20.5718 OW      1208 WAT     -0.834000
   3734 H1         22.7688   19.0536   20.0511 HW      1208 WAT      0.417000
   3735 H2         21.8747   18.1522   20.8753 HW      1208 WAT      0.417000
   3736 O          10.7153   35.4288   21.8973 OW      1209 WAT     -0.834000
   3737 H1         10.7353   34.8145   21.1635 HW      1209 WAT      0.417000
   3738 H2         11.5154   35.2416   22.3882 HW      1209 WAT      0.417000
   3739 O          17.2199   22.1746    1.5358 OW      1210 WAT     -0.834000
   3740 H1         17.4863   21.2567    1.5891 HW      1210 WAT      0.417000
   3741 H2         18.0262   22.6672    1.6887 HW      1210 WAT      0.417000
   3742 O          25.7493    2.3715   37.0300 OW      1211 WAT     -0.834000
   3743 H1         25.8913    3.3180   37.0149 HW      1211 WAT      0.417000
   3744 H2         26.1259    2.0861   37.8624 HW      1211 WAT      0.417000
   3745 O          31.0951    9.8698   25.3622 OW      1212 WAT     -0.834000
   3746 H1         31.8436   10.3427   25.7260 HW      1212 WAT      0.417000
   3747 H2         31.4738    9.0755   24.9854 HW      1212 WAT      0.417000
   3748 O           0.8322   19.5978   42.9477 OW      1213 WAT     -0.834000
   3749 H1          1.7886   19.6323   42.9621 HW      1213 WAT      0.417000
   3750 H2          0.5566   20.4526   43.2787 HW      1213 WAT      0.417000
   3751 O          11.6537   23.0100   39.3062 OW      1214 WAT     -0.834000
   3752 H1         11.6525   22.1789   39.7809 HW      1214 WAT      0.417000
   3753 H2         11.2407   23.6299   39.9074 HW      1214 WAT      0.417000
   3754 O          28.8839   13.5553   30.0165 OW      1215 WAT     -0.834000
   3755 H1         29.6083   13.5380   29.3910 HW      1215 WAT      0.417000
   3756 H2         28.1058   13.3821   29.4868 HW      1215 WAT      0.417000
   3757 O          12.7984   14.6279   39.0914 OW      1216 WAT     -0.834000
   3758 H1         13.5479   14.7060   39.6816 HW      1216 WAT      0.417000
   3759 H2         12.4411   15.5144   39.0393 HW      1216 WAT      0.417000
   3760 O           8.3010   32.7826   16.4391 OW      1217 WAT     -0.834000
   3761 H1          8.4304   31.9222   16.0399 HW      1217 WAT      0.417000
   3762 H2          8.6135   33.4019   15.7796 HW      1217 WAT      0.417000
   3763 O           5.0654    7.7438    1.8830 OW      1218 WAT     -0.834000
   3764 H1          4.4367    8.1991    1.3231 HW      1218 WAT      0.417000
   3765 H2          5.5571    7.1823    1.2837 HW      1218 WAT      0.417000
   3766 O           1.6219   10.8444   40.9287 OW      1219 WAT     -0.834000
   3767 H1          2.1782   11.6017   41.1107 HW      1219 WAT      0.417000
   3768 H2          1.2532   11.0205   40.0631 HW      1219 WAT      0.417000
   3769 O          24.1391   12.9467   27.5665 OW      1220 WAT     -0.834000
   3770 H1         24.5697   13.6605   28.0370 HW      1220 WAT      0.417000
   3771 H2         24.3405   13.1112   26.6453 HW      1220 WAT      0.417000
   3772 O          10.4532   20.6760    3.8934 OW      1221 WAT     -0.834000
   3773 H1         10.5558   19.8110    4.2903 HW      1221 WAT      0.417000
   3774 H2         10.7886   20.5721    3.0029 HW      1221 WAT      0.417000
   3775 O          25.4929   33.7823   29.2054 OW      1222 WAT     -0.834000
   3776 H1         25.2497   34.7076   29.2330 HW      1222 WAT      0.417000
   3777 H2         26.3870   33.7594   29.5466 HW      1222 WAT      0.417000
   3778 O          30.3263    1.3950   44.6736 OW      1223 WAT     -0.834000
   3779 H1         30.4942    2.3132   44.8857 HW      1223 WAT      0.417000
   3780 H2         30.7443    1.2655   43.8223 HW      1223 WAT      0.417000
   3781 O          12.4864   14.8882   32.9191 OW      1224 WAT     -0.834000
   3782 H1         12.6143   15.7575   32.5394 HW      1224 WAT      0.417000
   3783 H2         12.3622   15.0511   33.8541 HW      1224 WAT      0.417000
   3784 O          10.6882   34.4024   35.4937 OW      1225 WAT     -0.834000
   3785 H1         10.4045   35.2037   35.0536 HW      1225 WAT      0.417000
   3786 H2         10.8128   33.7712   34.7850 HW      1225 WAT      0.417000
   3787 O          35.1899   22.7306   26.9731 OW      1226 WAT     -0.834000
   3788 H1         34.7772   22.2087   26.2850 HW      1226 WAT      0.417000
   3789 H2         35.0907   23.6361   26.6791 HW      1226 WAT      0.417000
   3790 O          24.5934   31.6801   14.7943 OW      1227 WAT     -0.834000
   3791 H1         23.8618   31.5651   15.4008 HW      1227 WAT      0.417000
   3792 H2         24.1793   31.8048   13.9404 HW      1227 WAT      0.417000
   3793 O           6.2087   18.9002   40.8057 OW      1228 WAT     -0.834000
   3794 H1          6.8791   18.3772   40.3662 HW      1228 WAT      0.417000
   3795 H2          6.1926   19.7254   40.3209 HW      1228 WAT      0.417000
   3796 O           4.0196   26.4684   46.3096 OW      1229 WAT     -0.834000
   3797 H1          3.2831   27.0731   46.2193 HW      1229 WAT      0.417000
   3798 H2          4.5050   26.5580   45.4895 HW      1229 WAT      0.417000
   3799 O          10.5356   15.6351   30.3391 OW      1230 WAT     -0.834000
   3800 H1         10.7426   14.9815   31.0071 HW      1230 WAT      0.417000
   3801 H2         10.8580   16.4597   30.7028 HW      1230 WAT      0.417000
   3802 O           4.1106   32.3755    5.8437 OW      1231 WAT     -0.834000
   3803 H1          3.8891   33.0353    5.1865 HW      1231 WAT      0.417000
   3804 H2          3.5634   31.6224    5.6209 HW      1231 WAT      0.417000
   3805 O          10.9890   34.2681   38.3474 OW      1232 WAT     -0.834000
   3806 H1         11.0121   35.2178   38.4651 HW      1232 WAT      0.417000
   3807 H2         10.8104   34.1466   37.4149 HW      1232 WAT      0.417000
   3808 O          31.9640   17.3511   15.9487 OW      1233 WAT     -0.834000
   3809 H1         31.7200   17.3268   15.0234 HW      1233 WAT      0.417000
   3810 H2         32.8815   17.0785   15.9617 HW      1233 WAT      0.417000
   3811 O           2.9133    9.8651   13.3955 OW      1234 WAT     -0.834000
   3812 H1          2.3526   10.4802   12.9228 HW      1234 WAT      0.417000
   3813 H2          2.5688    9.8647   14.2886 HW      1234 WAT      0.417000
   3814 O          36.2951    3.0635    7.9817 OW      1235 WAT     -0.834000
   3815 H1         36.4992    3.9075    7.5789 HW      1235 WAT      0.417000
   3816 H2         35.5684    3.2511    8.5757 HW      1235 WAT      0.417000
   3817 O          17.7313   22.1889   49.7090 OW      1236 WAT     -0.834000
   3818 H1         18.6306   21.9819   49.4547 HW      1236 WAT      0.417000
   3819 H2         17.3354   21.3390   49.9018 HW      1236 WAT      0.417000
   3820 O          32.1847   27.6699   20.2979 OW      1237 WAT     -0.834000
   3821 H1         31.2398   27.7337   20.1592 HW      1237 WAT      0.417000
   3822 H2         32.5689   28.0660   19.5158 HW      1237 WAT      0.417000
   3823 O           5.1663    4.4964    8.6874 OW      1238 WAT     -0.834000
   3824 H1          5.9152    4.8993    8.2482 HW      1238 WAT      0.417000
   3825 H2          5.0466    3.6599    8.2379 HW      1238 WAT      0.417000
   3826 O           8.4413   11.2277   21.8198 OW      1239 WAT     -0.834000
   3827 H1          8.4886   10.2860   21.6554 HW      1239 WAT      0.417000
   3828 H2          8.1379   11.6005   20.9919 HW      1239 WAT      0.417000
   3829 O          34.5053   12.2334   50.0670 OW      1240 WAT     -0.834000
   3830 H1         34.2190   11.6304   49.3810 HW      1240 WAT      0.417000
   3831 H2         34.5387   11.6967   50.8589 HW      1240 WAT      0.417000
   3832 O          34.2208    5.0918   46.2770 OW      1241 WAT     -0.834000
   3833 H1         34.1214    4.3433   45.6887 HW      1241 WAT      0.417000
   3834 H2         34.6158    4.7242   47.0676 HW      1241 WAT      0.417000
   3835 O           7.7103   26.7943   36.6745 OW      1242 WAT     -0.834000
   3836 H1          6.8217   27.0628   36.4408 HW      1242 WAT      0.417000
   3837 H2          8.2159   26.9143   35.8707 HW      1242 WAT      0.417000
   3838 O           2.2000    0.5360   28.6861 OW      1243 WAT     -0.834000
   3839 H1          2.3451   -0.3685   28.4084 HW      1243 WAT      0.417000
   3840 H2          2.0242    1.0107   27.8737 HW      1243 WAT      0.417000
   3841 O          35.9559   14.5086   21.1702 OW      1244 WAT     -0.834000
   3842 H1         35.4832   14.9840   20.4869 HW      1244 WAT      0.417000
   3843 H2         36.5637   15.1526   21.5335 HW      1244 WAT      0.417000
   3844 O          24.2809   28.5052   24.2532 OW      1245 WAT     -0.834000
   3845 H1         24.1737   29.3161   23.7560 HW      1245 WAT      0.417000
   3846 H2         23.4190   28.0899   24.2228 HW      1245 WAT      0.417000
   3847 O          31.0262   12.9279   20.9852 OW      1246 WAT     -0.834000
   3848 H1         30.1950   12.5816   20.6604 HW      1246 WAT      0.417000
   3849 H2         31.6856   12.3185   20.6535 HW      1246 WAT      0.417000
   3850 O          33.4910   11.6657   20.3279 OW      1247 WAT     -0.834000
   3851 H1         33.5701   12.3822   19.6982 HW      1247 WAT      0.417000
   3852 H2         33.5835   10.8721   19.8007 HW      1247 WAT      0.417000
   3853 O          19.7073   11.1496   45.9107 OW      1248 WAT     -0.834000
   3854 H1         20.4581   11.7426   45.9396 HW      1248 WAT      0.417000
   3855 H2         19.1538   11.4282   46.6403 HW      1248 WAT      0.417000
   3856 O          22.7691   10.4880   24.8857 OW      1249 WAT     -0.834000
   3857 H1         22.5357    9.7631   25.4656 HW      1249 WAT      0.417000
   3858 H2         23.7251   10.5229   24.9187 HW      1249 WAT      0.417000
   3859 O          33.9757   10.0807   41.7297 OW      1250 WAT     -0.834000
   3860 H1         33.3821   10.3256   42.4396 HW      1250 WAT      0.417000
   3861 H2         34.2754   10.9154   41.3695 HW      1250 WAT      0.417000
   3862 O          15.3007   33.1561   21.7262 OW      1251 WAT     -0.834000
   3863 H1         15.6261   33.4068   22.5908 HW      1251 WAT      0.417000
   3864 H2         14.8815   32.3069   21.8650 HW      1251 WAT      0.417000
   3865 O          23.8853   21.0605    9.3101 OW      1252 WAT     -0.834000
   3866 H1         24.1646   20.1533    9.4335 HW      1252 WAT      0.417000
   3867 H2         24.4817   21.4067    8.6464 HW      1252 WAT      0.417000
   3868 O          32.0610   29.4338   42.8728 OW      1253 WAT     -0.834000
   3869 H1         31.2962   28.9393   42.5782 HW      1253 WAT      0.417000
   3870 H2         32.0375   30.2404   42.3580 HW      1253 WAT      0.417000
   3871 O          32.5108   25.3030   41.7986 OW      1254 WAT     -0.834000
   3872 H1         32.4132   25.6004   42.7031 HW      1254 WAT      0.417000
   3873 H2         32.8182   26.0756   41.3243 HW      1254 WAT      0.417000
   3874 O          28.9266   16.3854   12.2625 OW      1255 WAT     -0.834000
   3875 H1         28.7885   16.6164   11.3439 HW      1255 WAT      0.417000
   3876 H2         28.0441   16.3001   12.6232 HW      1255 WAT      0.417000
   3877 O          17.5669   20.9862   23.2083 OW      1256 WAT     -0.834000
   3878 H1         16.9841   20.4431   23.7390 HW      1256 WAT      0.417000
   3879 H2         17.1014   21.8174   23.1158 HW      1256 WAT      0.417000
   3880 O          16.9413   13.5680   44.8207 OW      1257 WAT     -0.834000
   3881 H1         17.3960   12.8355   44.4047 HW      1257 WAT      0.417000
   3882 H2         17.2733   14.3437   44.3688 HW      1257 WAT      0.417000
   3883 O           6.8263   23.0598   47.0660 OW      1258 WAT     -0.834000
   3884 H1          6.3188   22.8082   47.8376 HW      1258 WAT      0.417000
   3885 H2          6.1716   23.3629   46.4370 HW      1258 WAT      0.417000
   3886 O          13.7267   22.0852    4.3160 OW      1259 WAT     -0.834000
   3887 H1         13.5543   22.5855    5.1136 HW      1259 WAT      0.417000
   3888 H2         14.1690   22.7047    3.7356 HW      1259 WAT      0.417000
   3889 O          32.4770   11.7957    6.2129 OW      1260 WAT     -0.834000
   3890 H1         31.8360   11.3750    6.7860 HW      1260 WAT      0.417000
   3891 H2         32.7995   11.0883    5.6545 HW      1260 WAT      0.417000
   3892 O          18.7995   21.4156   18.2769 OW      1261 WAT     -0.834000
   3893 H1         18.4631   21.0098   19.0759 HW      1261 WAT      0.417000
   3894 H2         18.9823   20.6794   17.6931 HW      1261 WAT      0.417000
   3895 O           1.9473   24.9396   49.5487 OW      1262 WAT     -0.834000
   3896 H1          1.9556   24.2390   48.8966 HW      1262 WAT      0.417000
   3897 H2          2.8325   25.3028   49.5213 HW      1262 WAT      0.417000
   3898 O           3.3986    4.9570   27.0383 OW      1263 WAT     -0.834000
   3899 H1          3.9404    4.2239   27.3301 HW      1263 WAT      0.417000
   3900 H2          3.9137    5.7352   27.2512 HW      1263 WAT      0.417000
   3901 O          17.1708   15.8954   17.1198 OW      1264 WAT     -0.834000
   3902 H1         17.9856   15.8843   17.6220 HW      1264 WAT      0.417000
   3903 H2         17.3842   16.3895   16.3282 HW      1264 WAT      0.417000
   3904 O          31.5309    6.8379   28.0793 OW      1265 WAT     -0.834000
   3905 H1         32.2375    7.1682   27.5244 HW      1265 WAT      0.417000
   3906 H2         31.7182    5.9041   28.1751 HW      1265 WAT      0.417000
   3907 O           0.9574   30.5408   23.4174 OW      1266 WAT     -0.834000
   3908 H1          1.1323   29.6020   23.3521 HW      1266 WAT      0.417000
   3909 H2          1.8094   30.9300   23.6146 HW      1266 WAT      0.417000
   3910 O          17.2993   30.1790   34.2965 OW      1267 WAT     -0.834000
   3911 H1         17.4129   30.3311   33.3583 HW      1267 WAT      0.417000
   3912 H2         17.1541   29.2358   34.3703 HW      1267 WAT      0.417000
   3913 O          29.7274   20.6053   32.7705 OW      1268 WAT     -0.834000
   3914 H1         29.6162   20.9601   31.8885 HW      1268 WAT      0.417000
   3915 H2         30.2693   19.8258   32.6486 HW      1268 WAT      0.417000
   3916 O          19.8754    7.3489   38.1650 OW      1269 WAT     -0.834000
   3917 H1         20.2496    7.5822   37.3155 HW      1269 WAT      0.417000
   3918 H2         20.5040    7.6846   38.8040 HW      1269 WAT      0.417000
   3919 O          34.9099   31.5848   36.2854 OW      1270 WAT     -0.834000
   3920 H1         34.9277   32.5291   36.1300 HW      1270 WAT      0.417000
   3921 H2         34.5466   31.4938   37.1663 HW      1270 WAT      0.417000
   3922 O          34.1118   17.2757   11.4694 OW      1271 WAT     -0.834000
   3923 H1         33.1678   17.1229   11.5112 HW      1271 WAT      0.417000
   3924 H2         34.4913   16.4030   11.3665 HW      1271 WAT      0.417000
   3925 O          25.8613   19.9189    0.1964 OW      1272 WAT     -0.834000
   3926 H1         25.3697   19.1066    0.3181 HW      1272 WAT      0.417000
   3927 H2         25.4930   20.5208    0.8432 HW      1272 WAT      0.417000
   3928 O          18.8104   27.2781   37.6141 OW      1273 WAT     -0.834000
   3929 H1         18.6563   26.4176   37.2241 HW      1273 WAT      0.417000
   3930 H2         18.0014   27.4755   38.0862 HW      1273 WAT      0.417000
   3931 O          11.4655   27.6254    1.5413 OW      1274 WAT     -0.834000
   3932 H1         11.3966   26.6870    1.7170 HW      1274 WAT      0.417000
   3933 H2         10.7176   27.8188    0.9762 HW      1274 WAT      0.417000
   3934 O          17.5226   16.8579    8.8225 OW      1275 WAT     -0.834000
   3935 H1         18.0104   16.1860    9.2987 HW      1275 WAT      0.417000
   3936 H2         18.0699   17.6407    8.8849 HW      1275 WAT      0.417000
   3937 O          35.1651   23.0359    2.1656 OW      1276 WAT     -0.834000
   3938 H1         35.5503   23.4944    1.4189 HW      1276 WAT      0.417000
   3939 H2         35.5742   22.1706    2.1522 HW      1276 WAT      0.417000
   3940 O          19.0329    8.9727    3.0294 OW      1277 WAT     -0.834000
   3941 H1         18.2396    9.3878    2.6908 HW      1277 WAT      0.417000
   3942 H2         19.6834    9.1002    2.3389 HW      1277 WAT      0.417000
   3943 O           9.5353   15.5562   32.8575 OW      1278 WAT     -0.834000
   3944 H1         10.1642   15.7279   33.5583 HW      1278 WAT      0.417000
   3945 H2          9.5463   14.6047   32.7537 HW      1278 WAT      0.417000
   3946 O           1.7349   23.1479   34.5526 OW      1279 WAT     -0.834000
   3947 H1          1.1450   23.8081   34.9163 HW      1279 WAT      0.417000
   3948 H2          1.9737   23.4889   33.6907 HW      1279 WAT      0.417000
   3949 O          14.1418   12.0906   42.6584 OW      1280 WAT     -0.834000
   3950 H1         14.5780   11.5404   43.3090 HW      1280 WAT      0.417000
   3951 H2         14.0980   12.9553   43.0666 HW      1280 WAT      0.417000
   3952 O          25.2489    0.3304    3.0659 OW      1281 WAT     -0.834000
   3953 H1         25.3974    1.2760    3.0536 HW      1281 WAT      0.417000
   3954 H2         25.9990   -0.0360    2.5976 HW      1281 WAT      0.417000
   3955 O          10.9225   28.6535   13.5378 OW      1282 WAT     -0.834000
   3956 H1         10.3898   29.4480   13.5720 HW      1282 WAT      0.417000
   3957 H2         11.0660   28.4217   14.4553 HW      1282 WAT      0.417000
   3958 O          11.0601   25.1024   35.0430 OW      1283 WAT     -0.834000
   3959 H1         11.8776   25.0450   35.5377 HW      1283 WAT      0.417000
   3960 H2         10.4978   24.4320   35.4311 HW      1283 WAT      0.417000
   3961 O           7.8571   24.5634   49.5293 OW      1284 WAT     -0.834000
   3962 H1          8.5829   25.1335   49.2754 HW      1284 WAT      0.417000
   3963 H2          7.6498   24.0713   48.7348 HW      1284 WAT      0.417000
   3964 O          26.8866   16.5405   48.1000 OW      1285 WAT     -0.834000
   3965 H1         26.8529   16.3929   49.0451 HW      1285 WAT      0.417000
   3966 H2         27.1374   15.6924   47.7339 HW      1285 WAT      0.417000
   3967 O          14.8672   15.3328   13.6717 OW      1286 WAT     -0.834000
   3968 H1         14.5959   16.1454   14.0986 HW      1286 WAT      0.417000
   3969 H2         15.4516   15.6153   12.9682 HW      1286 WAT      0.417000
   3970 O           8.5199    0.5247   22.9481 OW      1287 WAT     -0.834000
   3971 H1          7.7558    0.7241   22.4072 HW      1287 WAT      0.417000
   3972 H2          9.1301    0.0924   22.3505 HW      1287 WAT      0.417000
   3973 O          11.2533    1.5805   49.2708 OW      1288 WAT     -0.834000
   3974 H1         11.9532    1.9836   48.7572 HW      1288 WAT      0.417000
   3975 H2         10.7763    1.0388   48.6420 HW      1288 WAT      0.417000
   3976 O          17.9343   11.3168   43.5417 OW      1289 WAT     -0.834000
   3977 H1         18.6919   11.0729   44.0735 HW      1289 WAT      0.417000
   3978 H2         17.2211   10.7739   43.8776 HW      1289 WAT      0.417000
   3979 O          22.9400   21.3094   40.4592 OW      1290 WAT     -0.834000
   3980 H1         22.9998   21.4002   41.4102 HW      1290 WAT      0.417000
   3981 H2         22.0005   21.2652   40.2814 HW      1290 WAT      0.417000
   3982 O          28.5188   27.7179   51.0572 OW      1291 WAT     -0.834000
   3983 H1         29.1623   27.1323   51.4562 HW      1291 WAT      0.417000
   3984 H2         29.0302   28.4728   50.7658 HW      1291 WAT      0.417000
   3985 O          22.4798    3.1959   26.3198 OW      1292 WAT     -0.834000
   3986 H1         21.9485    2.4133   26.1734 HW      1292 WAT      0.417000
   3987 H2         22.3520    3.4024   27.2457 HW      1292 WAT      0.417000
   3988 O          31.6910   21.3909   15.2005 OW      1293 WAT     -0.834000
   3989 H1         32.4124   20.8239   15.4732 HW      1293 WAT      0.417000
   3990 H2         31.1668   20.8459   14.6136 HW      1293 WAT      0.417000
   3991 O          20.2373   20.3647   50.2121 OW      1294 WAT     -0.834000
   3992 H1         20.6082   21.2383   50.3368 HW      1294 WAT      0.417000
   3993 H2         20.9987   19.7882   50.1478 HW      1294 WAT      0.417000
   3994 O          27.2061   34.3357   40.0960 OW      1295 WAT     -0.834000
   3995 H1         26.4964   33.7283   39.8870 HW      1295 WAT      0.417000
   3996 H2         27.0302   34.6089   40.9964 HW      1295 WAT      0.417000
   3997 O          31.5511   20.3839   39.9963 OW      1296 WAT     -0.834000
   3998 H1         31.2037   19.4921   40.0091 HW      1296 WAT      0.417000
   3999 H2         31.7023   20.5953   40.9176 HW      1296 WAT      0.417000
   4000 O          15.6461   25.9865   36.4581 OW      1297 WAT     -0.834000
   4001 H1         16.3331   26.0634   37.1202 HW      1297 WAT      0.417000
   4002 H2         14.8983   25.6204   36.9303 HW      1297 WAT      0.417000
   4003 O          26.0472    2.6080   20.6086 OW      1298 WAT     -0.834000
   4004 H1         26.2144    2.7638   21.5381 HW      1298 WAT      0.417000
   4005 H2         26.6040    1.8616   20.3869 HW      1298 WAT      0.417000
   4006 O          27.8047    5.6954    2.9830 OW      1299 WAT     -0.834000
   4007 H1         27.1164    5.0435    3.1152 HW      1299 WAT      0.417000
   4008 H2         28.5496    5.3621    3.4832 HW      1299 WAT      0.417000
   4009 O          33.1615    9.0289   18.6293 OW      1300 WAT     -0.834000
   4010 H1         32.9441    9.4514   17.7983 HW      1300 WAT      0.417000
   4011 H2         33.9747    8.5561   18.4520 HW      1300 WAT      0.417000
   4012 O          35.7446    6.5570   29.9650 OW      1301 WAT     -0.834000
   4013 H1         35.8180    5.6741   29.6024 HW      1301 WAT      0.417000
   4014 H2         36.3161    7.0909   29.4131 HW      1301 WAT      0.417000
   4015 O          12.6239   12.8523    4.5587 OW      1302 WAT     -0.834000
   4016 H1         12.2859   13.2690    5.3514 HW      1302 WAT      0.417000
   4017 H2         13.4885   13.2432    4.4326 HW      1302 WAT      0.417000
   4018 O          23.7697   18.2254   23.1092 OW      1303 WAT     -0.834000
   4019 H1         23.6356   18.3307   22.1673 HW      1303 WAT      0.417000
   4020 H2         23.7760   19.1192   23.4517 HW      1303 WAT      0.417000
   4021 O          21.6641   12.0277   42.9877 OW      1304 WAT     -0.834000
   4022 H1         21.6844   12.5710   43.7755 HW      1304 WAT      0.417000
   4023 H2         20.8756   12.3085   42.5233 HW      1304 WAT      0.417000
   4024 O          16.2751   34.8741    9.7037 OW      1305 WAT     -0.834000
   4025 H1         15.4385   34.4478    9.5178 HW      1305 WAT      0.417000
   4026 H2         16.9298   34.1917    9.5555 HW      1305 WAT      0.417000
   4027 O          31.4020    3.5062    7.8716 OW      1306 WAT     -0.834000
   4028 H1         30.7453    3.3564    8.5516 HW      1306 WAT      0.417000
   4029 H2         31.5647    2.6391    7.5004 HW      1306 WAT      0.417000
   4030 O           9.8614   34.0409   27.5840 OW      1307 WAT     -0.834000
   4031 H1          9.5361   33.3055   27.0648 HW      1307 WAT      0.417000
   4032 H2         10.4039   33.6353   28.2603 HW      1307 WAT      0.417000
   4033 O          19.2020   14.8450   49.1640 OW      1308 WAT     -0.834000
   4034 H1         18.6381   15.1083   48.4367 HW      1308 WAT      0.417000
   4035 H2         18.9442   15.4176   49.8864 HW      1308 WAT      0.417000
   4036 O          11.0859    8.6602   14.7369 OW      1309 WAT     -0.834000
   4037 H1         10.1315    8.7280   14.7620 HW      1309 WAT      0.417000
   4038 H2         11.3385    8.4993   15.6461 HW      1309 WAT      0.417000
   4039 O          19.5158    7.8382   13.3539 OW      1310 WAT     -0.834000
   4040 H1         18.9845    7.3304   13.9672 HW      1310 WAT      0.417000
   4041 H2         18.9207    8.5097   13.0206 HW      1310 WAT      0.417000
   4042 O           7.3959    1.2545   36.8681 OW      1311 WAT     -0.834000
   4043 H1          7.8672    1.6930   36.1597 HW      1311 WAT      0.417000
   4044 H2          6.5356    1.6739   36.8790 HW      1311 WAT      0.417000
   4045 O          33.5295    9.7445   48.4225 OW      1312 WAT     -0.834000
   4046 H1         34.2007    9.1247   48.7081 HW      1312 WAT      0.417000
   4047 H2         32.9435    9.8265   49.1749 HW      1312 WAT      0.417000
   4048 O          30.3326   26.2180   23.5044 OW      1313 WAT     -0.834000
   4049 H1         30.9014   25.6532   22.9813 HW      1313 WAT      0.417000
   4050 H2         30.9046   26.9263   23.7998 HW      1313 WAT      0.417000
   4051 O          20.5500   28.7324   14.4405 OW      1314 WAT     -0.834000
   4052 H1         20.1315   27.9045   14.2044 HW      1314 WAT      0.417000
   4053 H2         19.8618   29.3885   14.3306 HW      1314 WAT      0.417000
   4054 O           7.7918   19.8211   21.9129 OW      1315 WAT     -0.834000
   4055 H1          8.0063   20.7292   22.1262 HW      1315 WAT      0.417000
   4056 H2          6.9156   19.8655   21.5301 HW      1315 WAT      0.417000
   4057 O          28.9320   18.4583   27.2468 OW      1316 WAT     -0.834000
   4058 H1         29.4128   18.3114   28.0613 HW      1316 WAT      0.417000
   4059 H2         28.6354   19.3666   27.3042 HW      1316 WAT      0.417000
   4060 O          22.5175    6.0449    5.7219 OW      1317 WAT     -0.834000
   4061 H1         21.6641    5.7879    6.0710 HW      1317 WAT      0.417000
   4062 H2         22.3132    6.6662    5.0230 HW      1317 WAT      0.417000
   4063 O          12.9838   31.6838   37.7354 OW      1318 WAT     -0.834000
   4064 H1         13.1753   32.5853   37.4770 HW      1318 WAT      0.417000
   4065 H2         12.0697   31.5516   37.4840 HW      1318 WAT      0.417000
   4066 O          18.0082   11.3779   27.1699 OW      1319 WAT     -0.834000
   4067 H1         17.2134   11.6979   26.7431 HW      1319 WAT      0.417000
   4068 H2         18.3496   10.7125   26.5724 HW      1319 WAT      0.417000
   4069 O          23.7447    3.7939   19.8420 OW      1320 WAT     -0.834000
   4070 H1         24.4624    3.4828   20.3937 HW      1320 WAT      0.417000
   4071 H2         23.7179    3.1748   19.1124 HW      1320 WAT      0.417000
   4072 O          32.0416   26.0349   44.9107 OW      1321 WAT     -0.834000
   4073 H1         32.7945   25.4438   44.9135 HW      1321 WAT      0.417000
   4074 H2         32.3788   26.8541   45.2733 HW      1321 WAT      0.417000
   4075 O          21.5830    0.4290   23.2671 OW      1322 WAT     -0.834000
   4076 H1         21.4129    1.0742   23.9534 HW      1322 WAT      0.417000
   4077 H2         21.0298    0.7050   22.5364 HW      1322 WAT      0.417000
   4078 O          19.0065    2.5726   18.4227 OW      1323 WAT     -0.834000
   4079 H1         18.3489    1.9219   18.6685 HW      1323 WAT      0.417000
   4080 H2         18.9624    2.6086   17.4672 HW      1323 WAT      0.417000
   4081 O          30.3179   24.2548   37.7143 OW      1324 WAT     -0.834000
   4082 H1         30.8576   24.2876   36.9244 HW      1324 WAT      0.417000
   4083 H2         30.9375   24.3799   38.4331 HW      1324 WAT      0.417000
   4084 O          32.0768    7.3767    1.2189 OW      1325 WAT     -0.834000
   4085 H1         31.3491    6.8481    0.8912 HW      1325 WAT      0.417000
   4086 H2         32.5466    6.7938    1.8154 HW      1325 WAT      0.417000
   4087 O          25.6830   27.1592   49.0877 OW      1326 WAT     -0.834000
   4088 H1         25.7806   27.3871   50.0122 HW      1326 WAT      0.417000
   4089 H2         25.5563   26.2104   49.0870 HW      1326 WAT      0.417000
   4090 O           4.3090   30.2724   46.8258 OW      1327 WAT     -0.834000
   4091 H1          5.2289   30.4989   46.9624 HW      1327 WAT      0.417000
   4092 H2          3.9636   30.1315   47.7074 HW      1327 WAT      0.417000
   4093 O          34.2742   24.0435   21.7068 OW      1328 WAT     -0.834000
   4094 H1         34.8478   24.6441   21.2310 HW      1328 WAT      0.417000
   4095 H2         33.4092   24.1823   21.3212 HW      1328 WAT      0.417000
   4096 O          31.9861   32.6421   21.4415 OW      1329 WAT     -0.834000
   4097 H1         32.0060   32.0683   22.2074 HW      1329 WAT      0.417000
   4098 H2         32.3269   33.4781   21.7596 HW      1329 WAT      0.417000
   4099 O          21.3875    3.0643   49.2408 OW      1330 WAT     -0.834000
   4100 H1         21.9206    2.3948   48.8121 HW      1330 WAT      0.417000
   4101 H2         20.6951    2.5725   49.6824 HW      1330 WAT      0.417000
   4102 O          22.4153   31.0035   16.1285 OW      1331 WAT     -0.834000
   4103 H1         22.2796   31.1177   17.0691 HW      1331 WAT      0.417000
   4104 H2         21.5398   31.0794   15.7492 HW      1331 WAT      0.417000
   4105 O          16.4332   31.2856   15.7505 OW      1332 WAT     -0.834000
   4106 H1         16.3079   32.2272   15.8687 HW      1332 WAT      0.417000
   4107 H2         16.4027   30.9268   16.6374 HW      1332 WAT      0.417000
   4108 O           5.2409    0.5680   14.3412 OW      1333 WAT     -0.834000
   4109 H1          5.6238    0.7557   13.4843 HW      1333 WAT      0.417000
   4110 H2          4.3740    0.2135   14.1438 HW      1333 WAT      0.417000
   4111 O           0.9866   22.6524   15.6286 OW      1334 WAT     -0.834000
   4112 H1          0.5831   23.3442   16.1529 HW      1334 WAT      0.417000
   4113 H2          0.2545   22.0966   15.3614 HW      1334 WAT      0.417000
   4114 O          23.2753   31.2634   37.6260 OW      1335 WAT     -0.834000
   4115 H1         23.5996   31.6915   36.8337 HW      1335 WAT      0.417000
   4116 H2         23.0840   30.3663   37.3522 HW      1335 WAT      0.417000
   4117 O           5.1404    8.7937   12.5956 OW      1336 WAT     -0.834000
   4118 H1          5.2735    8.9940   11.6691 HW      1336 WAT      0.417000
   4119 H2          4.6169    9.5240   12.9256 HW      1336 WAT      0.417000
   4120 O          36.3155   24.6001   17.0147 OW      1337 WAT     -0.834000
   4121 H1         36.4499   25.3588   17.5827 HW      1337 WAT      0.417000
   4122 H2         35.4002   24.3565   17.1529 HW      1337 WAT      0.417000
   4123 O          19.4527   25.9779   19.4960 OW      1338 WAT     -0.834000
   4124 H1         19.9378   25.3145   19.9866 HW      1338 WAT      0.417000
   4125 H2         19.9069   26.7982   19.6887 HW      1338 WAT      0.417000
   4126 O          28.7430   25.9807   25.6410 OW      1339 WAT     -0.834000
   4127 H1         29.2900   25.5149   26.2736 HW      1339 WAT      0.417000
   4128 H2         29.2222   25.9141   24.8151 HW      1339 WAT      0.417000
   4129 O          32.3583   30.5959   17.5618 OW      1340 WAT     -0.834000
   4130 H1         31.4405   30.7307   17.7980 HW      1340 WAT      0.417000
   4131 H2         32.3744   30.6760   16.6080 HW      1340 WAT      0.417000
   4132 O           7.7774    4.0748   23.3862 OW      1341 WAT     -0.834000
   4133 H1          7.8042    3.3971   24.0617 HW      1341 WAT      0.417000
   4134 H2          8.0114    4.8809   23.8462 HW      1341 WAT      0.417000
   4135 O          35.6786   13.8656   36.6760 OW      1342 WAT     -0.834000
   4136 H1         35.9983   14.7327   36.4266 HW      1342 WAT      0.417000
   4137 H2         34.8907   14.0398   37.1909 HW      1342 WAT      0.417000
   4138 O          16.6410   13.6856   33.2228 OW      1343 WAT     -0.834000
   4139 H1         16.1488   14.4260   32.8682 HW      1343 WAT      0.417000
   4140 H2         17.4803   14.0612   33.4887 HW      1343 WAT      0.417000
   4141 O          23.8399   14.8278   21.2909 OW      1344 WAT     -0.834000
   4142 H1         24.0538   13.9899   21.7011 HW      1344 WAT      0.417000
   4143 H2         24.6866   15.2562   21.1653 HW      1344 WAT      0.417000
   4144 O          27.3862    2.9775   31.1116 OW      1345 WAT     -0.834000
   4145 H1         26.6849    2.3782   31.3673 HW      1345 WAT      0.417000
   4146 H2         27.6021    3.4503   31.9154 HW      1345 WAT      0.417000
   4147 O          22.5023   18.7950   37.6272 OW      1346 WAT     -0.834000
   4148 H1         21.8418   19.1785   37.0502 HW      1346 WAT      0.417000
   4149 H2         22.1611   17.9257   37.8374 HW      1346 WAT      0.417000
   4150 O          17.6452   27.2979    7.2362 OW      1347 WAT     -0.834000
   4151 H1         16.8785   27.6815    6.8105 HW      1347 WAT      0.417000
   4152 H2         17.4106   26.3795    7.3695 HW      1347 WAT      0.417000
   4153 O           2.5339   18.1392   13.1625 OW      1348 WAT     -0.834000
   4154 H1          2.8627   18.9675   12.8131 HW      1348 WAT      0.417000
   4155 H2          2.0601   18.3855   13.9569 HW      1348 WAT      0.417000
   4156 O          20.9687   34.5152   23.1840 OW      1349 WAT     -0.834000
   4157 H1         20.3238   34.3763   23.8775 HW      1349 WAT      0.417000
   4158 H2         21.0478   35.4669   23.1177 HW      1349 WAT      0.417000
   4159 O          24.3621    6.6717   29.2812 OW      1350 WAT     -0.834000
   4160 H1         24.0780    7.2415   29.9960 HW      1350 WAT      0.417000
   4161 H2         25.3014    6.5571   29.4252 HW      1350 WAT      0.417000
   4162 O          25.5439   14.3827   37.9803 OW      1351 WAT     -0.834000
   4163 H1         24.9067   14.8301   38.5372 HW      1351 WAT      0.417000
   4164 H2         26.3729   14.4637   38.4520 HW      1351 WAT      0.417000
   4165 O           2.8828   31.3141   20.9870 OW      1352 WAT     -0.834000
   4166 H1          2.9519   31.5399   21.9146 HW      1352 WAT      0.417000
   4167 H2          2.9223   32.1554   20.5322 HW      1352 WAT      0.417000
   4168 O          32.4010   30.9360   14.7794 OW      1353 WAT     -0.834000
   4169 H1         32.6395   31.2951   13.9248 HW      1353 WAT      0.417000
   4170 H2         31.4486   30.8473   14.7446 HW      1353 WAT      0.417000
   4171 O          16.7702   10.0214    1.8749 OW      1354 WAT     -0.834000
   4172 H1         16.4078    9.1879    1.5745 HW      1354 WAT      0.417000
   4173 H2         16.5341   10.6462    1.1893 HW      1354 WAT      0.417000
   4174 O          19.5190   31.6225    4.6013 OW      1355 WAT     -0.834000
   4175 H1         19.7152   30.7946    4.1629 HW      1355 WAT      0.417000
   4176 H2         20.1082   32.2560    4.1918 HW      1355 WAT      0.417000
   4177 O          34.1162   16.2253   19.6683 OW      1356 WAT     -0.834000
   4178 H1         34.7538   16.5941   19.0569 HW      1356 WAT      0.417000
   4179 H2         33.2964   16.6723   19.4580 HW      1356 WAT      0.417000
   4180 O           0.5534   21.8888   10.7689 OW      1357 WAT     -0.834000
   4181 H1          0.0546   21.3345   10.1688 HW      1357 WAT      0.417000
   4182 H2          1.1850   22.3403   10.2090 HW      1357 WAT      0.417000
   4183 O          22.5034    7.7706   39.6573 OW      1358 WAT     -0.834000
   4184 H1         22.4021    8.0375   40.5709 HW      1358 WAT      0.417000
   4185 H2         22.1347    6.8879   39.6233 HW      1358 WAT      0.417000
   4186 O          21.2888   31.5453   18.6557 OW      1359 WAT     -0.834000
   4187 H1         20.8236   32.1791   19.2017 HW      1359 WAT      0.417000
   4188 H2         21.2565   30.7295   19.1553 HW      1359 WAT      0.417000
   4189 O          13.7229   33.6492   34.0082 OW      1360 WAT     -0.834000
   4190 H1         13.5137   33.7744   34.9338 HW      1360 WAT      0.417000
   4191 H2         14.6241   33.9603   33.9222 HW      1360 WAT      0.417000
   4192 O           1.4668    2.4431   50.2719 OW      1361 WAT     -0.834000
   4193 H1          1.9952    1.9073   50.8635 HW      1361 WAT      0.417000
   4194 H2          0.6304    2.5471   50.7257 HW      1361 WAT      0.417000
   4195 O          20.9711   21.4877   14.9776 OW      1362 WAT     -0.834000
   4196 H1         20.4929   22.2879   15.1951 HW      1362 WAT      0.417000
   4197 H2         20.5558   20.8086   15.5092 HW      1362 WAT      0.417000
   4198 O           6.1147   11.1593   41.5369 OW      1363 WAT     -0.834000
   4199 H1          5.2108   11.4742   41.5279 HW      1363 WAT      0.417000
   4200 H2          6.1076   10.4285   42.1550 HW      1363 WAT      0.417000
   4201 O          28.7285    8.8327   15.3428 OW      1364 WAT     -0.834000
   4202 H1         28.4582    8.7725   16.2591 HW      1364 WAT      0.417000
   4203 H2         29.4061    8.1632   15.2485 HW      1364 WAT      0.417000
   4204 O          14.8034   32.7489    6.3422 OW      1365 WAT     -0.834000
   4205 H1         15.5296   32.5708    5.7446 HW      1365 WAT      0.417000
   4206 H2         14.9711   32.1854    7.0975 HW      1365 WAT      0.417000
   4207 O          17.6818    7.1513   18.3058 OW      1366 WAT     -0.834000
   4208 H1         17.3405    8.0456   18.3037 HW      1366 WAT      0.417000
   4209 H2         17.2559    6.7307   17.5588 HW      1366 WAT      0.417000
   4210 O          32.0735    5.4492   35.8355 OW      1367 WAT     -0.834000
   4211 H1         32.6004    4.6640   35.6874 HW      1367 WAT      0.417000
   4212 H2         32.2044    5.9776   35.0482 HW      1367 WAT      0.417000
   4213 O          13.2639   36.8065   11.8746 OW      1368 WAT     -0.834000
   4214 H1         14.1730   36.5075   11.8925 HW      1368 WAT      0.417000
   4215 H2         12.7551   36.0156   11.6958 HW      1368 WAT      0.417000
   4216 O           2.7819    2.2489   46.8022 OW      1369 WAT     -0.834000
   4217 H1          2.6654    3.1422   46.4786 HW      1369 WAT      0.417000
   4218 H2          1.8917    1.9297   46.9503 HW      1369 WAT      0.417000
   4219 O          13.8271   13.3388   19.0089 OW      1370 WAT     -0.834000
   4220 H1         13.7267   14.2562   18.7548 HW      1370 WAT      0.417000
   4221 H2         14.7633   13.2392   19.1814 HW      1370 WAT      0.417000
   4222 O           5.7876   13.0181   32.8971 OW      1371 WAT     -0.834000
   4223 H1          5.1296   13.2844   32.2548 HW      1371 WAT      0.417000
   4224 H2          5.2901   12.5571   33.5725 HW      1371 WAT      0.417000
   4225 O          36.2217   11.1533   38.9192 OW      1372 WAT     -0.834000
   4226 H1         36.4908   11.6922   38.1752 HW      1372 WAT      0.417000
   4227 H2         35.2651   11.1611   38.8870 HW      1372 WAT      0.417000
   4228 O          27.1974   21.2608   47.7636 OW      1373 WAT     -0.834000
   4229 H1         27.5029   20.4717   48.2110 HW      1373 WAT      0.417000
   4230 H2         27.9992   21.7159   47.5063 HW      1373 WAT      0.417000
   4231 O          18.6062   28.1424   28.8227 OW      1374 WAT     -0.834000
   4232 H1         18.3664   29.0354   29.0703 HW      1374 WAT      0.417000
   4233 H2         19.5593   28.1654   28.7372 HW      1374 WAT      0.417000
   4234 O          16.1196   27.9894   27.4672 OW      1375 WAT     -0.834000
   4235 H1         16.8847   27.7873   28.0058 HW      1375 WAT      0.417000
   4236 H2         16.3362   27.6402   26.6027 HW      1375 WAT      0.417000
   4237 O           0.5192    5.3792   11.4281 OW      1376 WAT     -0.834000
   4238 H1          0.8932    6.2508   11.5572 HW      1376 WAT      0.417000
   4239 H2          1.0820    4.9722   10.7694 HW      1376 WAT      0.417000
   4240 O          34.9996   27.0953   41.3701 OW      1377 WAT     -0.834000
   4241 H1         35.1787   27.6679   40.6243 HW      1377 WAT      0.417000
   4242 H2         35.6855   26.4288   41.3305 HW      1377 WAT      0.417000
   4243 O           8.8272   28.8488   30.6065 OW      1378 WAT     -0.834000
   4244 H1          8.6707   28.1659   31.2588 HW      1378 WAT      0.417000
   4245 H2          8.7312   28.4028   29.7650 HW      1378 WAT      0.417000
   4246 O          10.4450    4.8749    5.6850 OW      1379 WAT     -0.834000
   4247 H1         11.0845    5.1196    6.3539 HW      1379 WAT      0.417000
   4248 H2         10.9363    4.8990    4.8638 HW      1379 WAT      0.417000
   4249 O          11.6841   31.0358    7.3243 OW      1380 WAT     -0.834000
   4250 H1         12.3120   31.2390    6.6309 HW      1380 WAT      0.417000
   4251 H2         12.1834   30.5172    7.9551 HW      1380 WAT      0.417000
   4252 O          36.3839   29.3432   40.3072 OW      1381 WAT     -0.834000
   4253 H1         37.0664   29.7988   40.8000 HW      1381 WAT      0.417000
   4254 H2         36.2057   29.9147   39.5603 HW      1381 WAT      0.417000
   4255 O          34.7319   25.9017   38.0947 OW      1382 WAT     -0.834000
   4256 H1         33.9354   26.3757   37.8555 HW      1382 WAT      0.417000
   4257 H2         34.8235   25.2306   37.4184 HW      1382 WAT      0.417000
   4258 O          25.2551   19.4293   15.9345 OW      1383 WAT     -0.834000
   4259 H1         24.4766   19.9852   15.9022 HW      1383 WAT      0.417000
   4260 H2         25.0148   18.7147   16.5244 HW      1383 WAT      0.417000
   4261 O          30.0182    0.9480   23.7912 OW      1384 WAT     -0.834000
   4262 H1         30.0175    1.8812   24.0042 HW      1384 WAT      0.417000
   4263 H2         29.5088    0.5419   24.4926 HW      1384 WAT      0.417000
   4264 O          16.5045   16.1845   11.2677 OW      1385 WAT     -0.834000
   4265 H1         17.0206   15.3823   11.1878 HW      1385 WAT      0.417000
   4266 H2         16.7432   16.7005   10.4977 HW      1385 WAT      0.417000
   4267 O           3.4584   20.3551   42.6856 OW      1386 WAT     -0.834000
   4268 H1          2.9803   21.1110   43.0264 HW      1386 WAT      0.417000
   4269 H2          3.8029   20.6498   41.8426 HW      1386 WAT      0.417000
   4270 O           4.3841   11.0141   34.4102 OW      1387 WAT     -0.834000
   4271 H1          3.7120   10.9583   33.7310 HW      1387 WAT      0.417000
   4272 H2          4.1452   10.3339   35.0400 HW      1387 WAT      0.417000
   4273 O          17.9976   16.5900   23.8857 OW      1388 WAT     -0.834000
   4274 H1         18.8616   16.6964   24.2837 HW      1388 WAT      0.417000
   4275 H2         17.9531   15.6622   23.6545 HW      1388 WAT      0.417000
   4276 O          13.8396   17.1701   47.4723 OW      1389 WAT     -0.834000
   4277 H1         14.6785   16.7288   47.6054 HW      1389 WAT      0.417000
   4278 H2         13.1852   16.4825   47.5953 HW      1389 WAT      0.417000
   4279 O          34.0230   17.0648   51.1211 OW      1390 WAT     -0.834000
   4280 H1         33.7476   16.9458   52.0301 HW      1390 WAT      0.417000
   4281 H2         34.7794   16.4866   51.0223 HW      1390 WAT      0.417000
   4282 O          19.7835   33.1096   29.7996 OW      1391 WAT     -0.834000
   4283 H1         19.1133   33.6218   30.2520 HW      1391 WAT      0.417000
   4284 H2         19.9107   32.3393   30.3534 HW      1391 WAT      0.417000
   4285 O          16.3557   15.5215   49.3021 OW      1392 WAT     -0.834000
   4286 H1         16.8781   16.3234   49.3179 HW      1392 WAT      0.417000
   4287 H2         16.6169   15.0813   48.4933 HW      1392 WAT      0.417000
   4288 O          14.7239   28.5369   18.2548 OW      1393 WAT     -0.834000
   4289 H1         14.1787   29.2328   18.6218 HW      1393 WAT      0.417000
   4290 H2         14.2608   28.2619   17.4635 HW      1393 WAT      0.417000
   4291 O          28.0491   24.9199   36.0748 OW      1394 WAT     -0.834000
   4292 H1         28.9750   24.9126   36.3178 HW      1394 WAT      0.417000
   4293 H2         28.0162   24.4484   35.2424 HW      1394 WAT      0.417000
   4294 O          24.4511   28.8498   47.3213 OW      1395 WAT     -0.834000
   4295 H1         24.9582   28.1740   47.7712 HW      1395 WAT      0.417000
   4296 H2         23.6173   28.8759   47.7907 HW      1395 WAT      0.417000
   4297 O          16.6258    0.8371   15.9590 OW      1396 WAT     -0.834000
   4298 H1         17.4236    1.2951   16.2236 HW      1396 WAT      0.417000
   4299 H2         16.2980    1.3388   15.2126 HW      1396 WAT      0.417000
   4300 O          17.6487   28.3858   21.3936 OW      1397 WAT     -0.834000
   4301 H1         17.7103   28.1367   20.4714 HW      1397 WAT      0.417000
   4302 H2         17.5030   29.3317   21.3769 HW      1397 WAT      0.417000
   4303 O          11.2792   20.3873   17.7425 OW      1398 WAT     -0.834000
   4304 H1         10.8796   20.0207   18.5312 HW      1398 WAT      0.417000
   4305 H2         12.1608   20.6405   18.0161 HW      1398 WAT      0.417000
   4306 O          22.5002   27.0946    2.3190 OW      1399 WAT     -0.834000
   4307 H1         22.6062   27.7290    1.6101 HW      1399 WAT      0.417000
   4308 H2         22.5390   27.6198    3.1183 HW      1399 WAT      0.417000
   4309 O          20.6163   21.0362   44.1720 OW      1400 WAT     -0.834000
   4310 H1         20.4507   21.3286   43.2758 HW      1400 WAT      0.417000
   4311 H2         19.7579   20.7665   44.4985 HW      1400 WAT      0.417000
   4312 O          25.8246   30.4278   26.0891 OW      1401 WAT     -0.834000
   4313 H1         25.0385   30.0119   25.7353 HW      1401 WAT      0.417000
   4314 H2         26.1129   29.8401   26.7874 HW      1401 WAT      0.417000
   4315 O          25.5734    0.5636   18.1532 OW      1402 WAT     -0.834000
   4316 H1         25.2678   -0.3359   18.0357 HW      1402 WAT      0.417000
   4317 H2         24.7736    1.0735   18.2813 HW      1402 WAT      0.417000
   4318 O           6.2884   29.5235   26.1786 OW      1403 WAT     -0.834000
   4319 H1          6.5192   29.7202   27.0865 HW      1403 WAT      0.417000
   4320 H2          6.2093   28.5700   26.1527 HW      1403 WAT      0.417000
   4321 O          17.0482   31.6536   26.6172 OW      1404 WAT     -0.834000
   4322 H1         17.2927   31.5060   25.7036 HW      1404 WAT      0.417000
   4323 H2         17.8144   31.3743   27.1184 HW      1404 WAT      0.417000
   4324 O          29.8856   23.5167    0.9648 OW      1405 WAT     -0.834000
   4325 H1         30.5375   23.0077    1.4466 HW      1405 WAT      0.417000
   4326 H2         29.6530   22.9635    0.2191 HW      1405 WAT      0.417000
   4327 O           6.6729   11.2035   30.7659 OW      1406 WAT     -0.834000
   4328 H1          6.8329   11.7629   31.5259 HW      1406 WAT      0.417000
   4329 H2          5.7428   11.3215   30.5732 HW      1406 WAT      0.417000
   4330 O          15.6292   10.8429   33.7661 OW      1407 WAT     -0.834000
   4331 H1         14.9385   11.0472   33.1357 HW      1407 WAT      0.417000
   4332 H2         16.2138   11.6002   33.7347 HW      1407 WAT      0.417000
   4333 O           7.8667   32.9386    4.1092 OW      1408 WAT     -0.834000
   4334 H1          7.3790   33.2953    4.8517 HW      1408 WAT      0.417000
   4335 H2          8.6860   32.6228    4.4903 HW      1408 WAT      0.417000
   4336 O           6.6577    4.0353   11.0280 OW      1409 WAT     -0.834000
   4337 H1          7.3922    4.5998   10.7873 HW      1409 WAT      0.417000
   4338 H2          5.9831    4.2294   10.3772 HW      1409 WAT      0.417000
   4339 O          15.5354    1.4810   50.1907 OW      1410 WAT     -0.834000
   4340 H1         16.2276    0.8740   49.9286 HW      1410 WAT      0.417000
   4341 H2         15.6323    2.2255   49.5969 HW      1410 WAT      0.417000
   4342 O          26.4528   12.3130   48.1549 OW      1411 WAT     -0.834000
   4343 H1         26.5572   11.3643   48.2272 HW      1411 WAT      0.417000
   4344 H2         25.6469   12.5026   48.6354 HW      1411 WAT      0.417000
   4345 O          17.6711   19.7846   42.0352 OW      1412 WAT     -0.834000
   4346 H1         18.3895   19.2859   41.6461 HW      1412 WAT      0.417000
   4347 H2         18.0486   20.1720   42.8249 HW      1412 WAT      0.417000
   4348 O          12.6110   12.4081   30.1167 OW      1413 WAT     -0.834000
   4349 H1         11.7309   12.1125   29.8840 HW      1413 WAT      0.417000
   4350 H2         12.5520   12.6273   31.0466 HW      1413 WAT      0.417000
   4351 O          22.7303   20.2422   24.9733 OW      1414 WAT     -0.834000
   4352 H1         21.8906   19.8244   24.7821 HW      1414 WAT      0.417000
   4353 H2         22.8367   20.1440   25.9195 HW      1414 WAT      0.417000
   4354 O          33.4718    1.8709   20.7617 OW      1415 WAT     -0.834000
   4355 H1         32.5763    1.5330   20.7470 HW      1415 WAT      0.417000
   4356 H2         33.8053    1.6278   21.6254 HW      1415 WAT      0.417000
   4357 O          19.9094   34.3664   12.8454 OW      1416 WAT     -0.834000
   4358 H1         19.8843   33.6762   12.1827 HW      1416 WAT      0.417000
   4359 H2         19.5501   33.9564   13.6321 HW      1416 WAT      0.417000
   4360 O          28.7810   29.2496   30.1750 OW      1417 WAT     -0.834000
   4361 H1         29.5125   28.8264   29.7254 HW      1417 WAT      0.417000
   4362 H2         28.8834   30.1802   29.9755 HW      1417 WAT      0.417000
   4363 O          25.4509   12.6626   32.0381 OW      1418 WAT     -0.834000
   4364 H1         25.1794   12.7477   32.9521 HW      1418 WAT      0.417000
   4365 H2         24.7467   12.1633   31.6246 HW      1418 WAT      0.417000
   4366 O          23.2161   34.6278   12.2106 OW      1419 WAT     -0.834000
   4367 H1         22.8594   35.4434   11.8589 HW      1419 WAT      0.417000
   4368 H2         23.9100   34.9076   12.8076 HW      1419 WAT      0.417000
   4369 O          21.3983   33.4023   44.3674 OW      1420 WAT     -0.834000
   4370 H1         20.9970   32.6164   43.9964 HW      1420 WAT      0.417000
   4371 H2         21.7915   33.1057   45.1881 HW      1420 WAT      0.417000
   4372 O          13.0742    7.5647   41.5635 OW      1421 WAT     -0.834000
   4373 H1         13.3982    8.4575   41.4443 HW      1421 WAT      0.417000
   4374 H2         13.7127    7.1541   42.1466 HW      1421 WAT      0.417000
   4375 O          23.2727   29.7939   30.6529 OW      1422 WAT     -0.834000
   4376 H1         22.5387   30.1561   30.1568 HW      1422 WAT      0.417000
   4377 H2         23.8495   30.5419   30.8079 HW      1422 WAT      0.417000
   4378 O          31.5806   36.1880   39.4344 OW      1423 WAT     -0.834000
   4379 H1         31.5943   36.6898   38.6194 HW      1423 WAT      0.417000
   4380 H2         30.7867   35.6566   39.3752 HW      1423 WAT      0.417000
   4381 O          35.8405    7.8848   25.2018 OW      1424 WAT     -0.834000
   4382 H1         36.7811    8.0245   25.0920 HW      1424 WAT      0.417000
   4383 H2         35.7342    6.9341   25.1697 HW      1424 WAT      0.417000
   4384 O          16.8086    2.2909    8.4447 OW      1425 WAT     -0.834000
   4385 H1         15.9826    1.8175    8.3451 HW      1425 WAT      0.417000
   4386 H2         16.6952    3.0835    7.9201 HW      1425 WAT      0.417000
   4387 O           5.6458   11.0559   15.8678 OW      1426 WAT     -0.834000
   4388 H1          5.9277   11.4955   15.0656 HW      1426 WAT      0.417000
   4389 H2          6.1413   10.2370   15.8790 HW      1426 WAT      0.417000
   4390 O           1.5099   31.4087   11.3712 OW      1427 WAT     -0.834000
   4391 H1          1.2762   31.1967   10.4676 HW      1427 WAT      0.417000
   4392 H2          1.9712   32.2451   11.3094 HW      1427 WAT      0.417000
   4393 O          -0.0601   16.3917   40.4903 OW      1428 WAT     -0.834000
   4394 H1          0.7669   15.9677   40.2611 HW      1428 WAT      0.417000
   4395 H2          0.1603   17.3199   40.5689 HW      1428 WAT      0.417000
   4396 O          19.9563    6.1434   20.5477 OW      1429 WAT     -0.834000
   4397 H1         20.2363    6.6204   19.7664 HW      1429 WAT      0.417000
   4398 H2         20.0866    5.2216   20.3251 HW      1429 WAT      0.417000
   4399 O          24.0151   11.3317   46.9155 OW      1430 WAT     -0.834000
   4400 H1         23.6306   10.4552   46.9164 HW      1430 WAT      0.417000
   4401 H2         23.7328   11.7179   47.7446 HW      1430 WAT      0.417000
   4402 O          22.5822   36.0340    4.2462 OW      1431 WAT     -0.834000
   4403 H1         23.1717   36.3551    4.9286 HW      1431 WAT      0.417000
   4404 H2         22.9800   36.3300    3.4274 HW      1431 WAT      0.417000
   4405 O           9.6235   35.8952   44.3758 OW      1432 WAT     -0.834000
   4406 H1          9.6662   36.1328   43.4495 HW      1432 WAT      0.417000
   4407 H2          9.5279   34.9428   44.3745 HW      1432 WAT      0.417000
   4408 O          31.5342   20.7752   36.8737 OW      1433 WAT     -0.834000
   4409 H1         31.8030   20.7823   37.7924 HW      1433 WAT      0.417000
   4410 H2         31.9339   21.5612   36.5012 HW      1433 WAT      0.417000
   4411 O          35.0857   21.6907   40.8146 OW      1434 WAT     -0.834000
   4412 H1         34.2081   21.3635   40.6173 HW      1434 WAT      0.417000
   4413 H2         35.0560   21.9098   41.7459 HW      1434 WAT      0.417000
   4414 O          20.8817   26.3020   12.0066 OW      1435 WAT     -0.834000
   4415 H1         20.4178   26.2839   12.8436 HW      1435 WAT      0.417000
   4416 H2         20.3148   25.8159   11.4079 HW      1435 WAT      0.417000
   4417 O          31.9876   29.7352    2.2001 OW      1436 WAT     -0.834000
   4418 H1         32.1647   30.6496    2.4205 HW      1436 WAT      0.417000
   4419 H2         31.9244   29.7269    1.2450 HW      1436 WAT      0.417000
   4420 O           5.0552    7.4297   37.6010 OW      1437 WAT     -0.834000
   4421 H1          5.4228    6.6463   38.0103 HW      1437 WAT      0.417000
   4422 H2          5.7983    8.0273   37.5173 HW      1437 WAT      0.417000
   4423 O          12.0841    8.4865   17.3166 OW      1438 WAT     -0.834000
   4424 H1         12.8012    7.8607   17.2142 HW      1438 WAT      0.417000
   4425 H2         12.4444    9.1742   17.8764 HW      1438 WAT      0.417000
   4426 O           9.7245    4.6765   25.9716 OW      1439 WAT     -0.834000
   4427 H1         10.1690    5.3024   26.5433 HW      1439 WAT      0.417000
   4428 H2         10.3505    3.9596   25.8688 HW      1439 WAT      0.417000
   4429 O          35.0684   26.8383   27.9543 OW      1440 WAT     -0.834000
   4430 H1         35.5501   27.5482   27.5297 HW      1440 WAT      0.417000
   4431 H2         35.5854   26.6300   28.7325 HW      1440 WAT      0.417000
   4432 O          15.9878   22.2421   11.4773 OW      1441 WAT     -0.834000
   4433 H1         15.2087   22.4639   10.9673 HW      1441 WAT      0.417000
   4434 H2         15.6526   21.7426   12.2218 HW      1441 WAT      0.417000
   4435 O           2.2360    6.0958   14.2434 OW      1442 WAT     -0.834000
   4436 H1          2.1497    6.7185   14.9652 HW      1442 WAT      0.417000
   4437 H2          1.9446    6.5816   13.4718 HW      1442 WAT      0.417000
   4438 O           1.2818   34.3562   44.3912 OW      1443 WAT     -0.834000
   4439 H1          0.3980   33.9887   44.4011 HW      1443 WAT      0.417000
   4440 H2          1.2559   35.0236   43.7055 HW      1443 WAT      0.417000
   4441 O          32.7411   12.2601   10.0836 OW      1444 WAT     -0.834000
   4442 H1         33.0826   12.3522   10.9731 HW      1444 WAT      0.417000
   4443 H2         31.7976   12.1481   10.1997 HW      1444 WAT      0.417000
   4444 O          32.1108   31.2183   40.8776 OW      1445 WAT     -0.834000
   4445 H1         32.5350   32.0761   40.8548 HW      1445 WAT      0.417000
   4446 H2         32.6198   30.6832   40.2687 HW      1445 WAT      0.417000
   4447 O          27.1196   31.8083   33.0195 OW      1446 WAT     -0.834000
   4448 H1         27.4830   31.9548   33.8928 HW      1446 WAT      0.417000
   4449 H2         27.8827   31.7937   32.4418 HW      1446 WAT      0.417000
   4450 O           4.3070   20.0988   11.1325 OW      1447 WAT     -0.834000
   4451 H1          4.4926   20.9688   10.7789 HW      1447 WAT      0.417000
   4452 H2          4.8437   20.0421   11.9231 HW      1447 WAT      0.417000
   4453 O          27.4207   23.8429   44.6889 OW      1448 WAT     -0.834000
   4454 H1         26.8939   23.1310   44.3258 HW      1448 WAT      0.417000
   4455 H2         27.0082   24.0415   45.5295 HW      1448 WAT      0.417000
   4456 O          18.7185   14.1058   14.5881 OW      1449 WAT     -0.834000
   4457 H1         19.4621   13.6661   14.1760 HW      1449 WAT      0.417000
   4458 H2         18.1477   13.3930   14.8749 HW      1449 WAT      0.417000
   4459 O          13.6670   26.4633   27.5792 OW      1450 WAT     -0.834000
   4460 H1         14.4591   26.9999   27.6077 HW      1450 WAT      0.417000
   4461 H2         12.9500   27.0964   27.5440 HW      1450 WAT      0.417000
   4462 O          11.4913   12.9180   23.1797 OW      1451 WAT     -0.834000
   4463 H1         11.8618   12.1588   23.6299 HW      1451 WAT      0.417000
   4464 H2         11.5776   12.7104   22.2493 HW      1451 WAT      0.417000
   4465 O          34.5323    0.5599    9.1272 OW      1452 WAT     -0.834000
   4466 H1         35.4357    0.4824    8.8202 HW      1452 WAT      0.417000
   4467 H2         34.5693    1.2246    9.8150 HW      1452 WAT      0.417000
   4468 O           9.8148   13.1493   42.7018 OW      1453 WAT     -0.834000
   4469 H1          9.3547   12.3829   43.0442 HW      1453 WAT      0.417000
   4470 H2         10.4487   12.7903   42.0809 HW      1453 WAT      0.417000
   4471 O           5.3919   23.0184   33.1388 OW      1454 WAT     -0.834000
   4472 H1          5.9148   23.6170   33.6721 HW      1454 WAT      0.417000
   4473 H2          4.7563   22.6460   33.7500 HW      1454 WAT      0.417000
   4474 O          31.9423   19.6012   25.2539 OW      1455 WAT     -0.834000
   4475 H1         32.5165   18.8457   25.1281 HW      1455 WAT      0.417000
   4476 H2         31.9406   19.7457   26.2001 HW      1455 WAT      0.417000
   4477 O           8.2483    9.3748    9.2542 OW      1456 WAT     -0.834000
   4478 H1          8.9673    9.7414    9.7688 HW      1456 WAT      0.417000
   4479 H2          8.5443    9.4432    8.3465 HW      1456 WAT      0.417000
   4480 O          -0.0667   36.5657    4.8018 OW      1457 WAT     -0.834000
   4481 H1          0.7437   36.5525    5.3110 HW      1457 WAT      0.417000
   4482 H2         -0.4233   35.6824    4.8962 HW      1457 WAT      0.417000
   4483 O          19.0399   12.6431   41.5350 OW      1458 WAT     -0.834000
   4484 H1         18.4275   12.5422   42.2637 HW      1458 WAT      0.417000
   4485 H2         19.1985   11.7497   41.2300 HW      1458 WAT      0.417000
   4486 O          14.1364    6.2452   10.5126 OW      1459 WAT     -0.834000
   4487 H1         14.5073    5.9047    9.6985 HW      1459 WAT      0.417000
   4488 H2         14.8897    6.3490   11.0940 HW      1459 WAT      0.417000
   4489 O          19.7025   22.9745    2.4838 OW      1460 WAT     -0.834000
   4490 H1         19.9281   22.6137    3.3412 HW      1460 WAT      0.417000
   4491 H2         19.9315   23.9018    2.5464 HW      1460 WAT      0.417000
   4492 O          30.5702   35.9676    6.5728 OW      1461 WAT     -0.834000
   4493 H1         31.0006   36.3159    7.3536 HW      1461 WAT      0.417000
   4494 H2         30.5462   36.7053    5.9633 HW      1461 WAT      0.417000
   4495 O           1.6520    0.2150   20.3826 OW      1462 WAT     -0.834000
   4496 H1          2.2917    0.9265   20.4091 HW      1462 WAT      0.417000
   4497 H2          1.0119    0.4927   19.7274 HW      1462 WAT      0.417000
   4498 O          29.8491   15.7464    5.5057 OW      1463 WAT     -0.834000
   4499 H1         29.6606   15.1173    6.2020 HW      1463 WAT      0.417000
   4500 H2         29.7579   15.2428    4.6968 HW      1463 WAT      0.417000
   4501 O          22.7345   22.3677   43.2887 OW      1464 WAT     -0.834000
   4502 H1         22.6237   23.2385   43.6704 HW      1464 WAT      0.417000
   4503 H2         21.9971   21.8613   43.6292 HW      1464 WAT      0.417000
   4504 O          16.0244   23.5753   47.0057 OW      1465 WAT     -0.834000
   4505 H1         16.7290   23.2414   47.5610 HW      1465 WAT      0.417000
   4506 H2         16.2682   23.3043   46.1206 HW      1465 WAT      0.417000
   4507 O          24.5006    1.3930   24.9905 OW      1466 WAT     -0.834000
   4508 H1         24.0294    2.2203   25.0896 HW      1466 WAT      0.417000
   4509 H2         25.4173    1.6192   25.1475 HW      1466 WAT      0.417000
   4510 O           3.8487   27.5922   17.5421 OW      1467 WAT     -0.834000
   4511 H1          4.5212   27.0118   17.8988 HW      1467 WAT      0.417000
   4512 H2          3.6990   28.2380   18.2326 HW      1467 WAT      0.417000
   4513 O          14.0384   14.1062   44.9116 OW      1468 WAT     -0.834000
   4514 H1         14.0770   15.0187   44.6251 HW      1468 WAT      0.417000
   4515 H2         14.8681   13.9627   45.3668 HW      1468 WAT      0.417000
   4516 O          32.2203    4.5558   32.2580 OW      1469 WAT     -0.834000
   4517 H1         32.5578    4.1925   31.4393 HW      1469 WAT      0.417000
   4518 H2         31.3924    4.0969   32.4003 HW      1469 WAT      0.417000
   4519 O           5.8365    6.0911   20.5073 OW      1470 WAT     -0.834000
   4520 H1          5.4798    5.8097   21.3498 HW      1470 WAT      0.417000
   4521 H2          6.5002    5.4343   20.2967 HW      1470 WAT      0.417000
   4522 O           5.6031   26.7440   27.8151 OW      1471 WAT     -0.834000
   4523 H1          4.7552   26.3332   27.9840 HW      1471 WAT      0.417000
   4524 H2          5.8296   27.1736   28.6400 HW      1471 WAT      0.417000
   4525 O          28.5311   35.6823   16.6811 OW      1472 WAT     -0.834000
   4526 H1         27.8057   35.0656   16.5828 HW      1472 WAT      0.417000
   4527 H2         28.3742   36.1039   17.5260 HW      1472 WAT      0.417000
   4528 O          21.1706    0.7510   27.0194 OW      1473 WAT     -0.834000
   4529 H1         20.2693    0.4834   26.8397 HW      1473 WAT      0.417000
   4530 H2         21.4181    0.2518   27.7977 HW      1473 WAT      0.417000
   4531 O           4.5415   32.3012   45.0024 OW      1474 WAT     -0.834000
   4532 H1          4.0322   33.0033   45.4074 HW      1474 WAT      0.417000
   4533 H2          4.4546   31.5634   45.6060 HW      1474 WAT      0.417000
   4534 O           1.3415   21.1336    0.7618 OW      1475 WAT     -0.834000
   4535 H1          0.6030   20.8989    1.3238 HW      1475 WAT      0.417000
   4536 H2          1.0320   20.9565   -0.1266 HW      1475 WAT      0.417000
   4537 O          30.6430   30.9460   44.8224 OW      1476 WAT     -0.834000
   4538 H1         31.2237   30.6364   44.1272 HW      1476 WAT      0.417000
   4539 H2         30.7669   30.3190   45.5349 HW      1476 WAT      0.417000
   4540 O          11.3524    1.3729    8.2542 OW      1477 WAT     -0.834000
   4541 H1         11.1783    0.6033    7.7125 HW      1477 WAT      0.417000
   4542 H2         11.6995    2.0226    7.6429 HW      1477 WAT      0.417000
   4543 O          30.6901   23.9160    4.0099 OW      1478 WAT     -0.834000
   4544 H1         31.4348   23.6065    3.4942 HW      1478 WAT      0.417000
   4545 H2         30.1026   23.1619    4.0587 HW      1478 WAT      0.417000
   4546 O           6.7170   28.7377   20.5588 OW      1479 WAT     -0.834000
   4547 H1          7.2337   29.4300   20.9712 HW      1479 WAT      0.417000
   4548 H2          6.5206   28.1289   21.2709 HW      1479 WAT      0.417000
   4549 O          17.7870   25.8301    3.8972 OW      1480 WAT     -0.834000
   4550 H1         18.5900   25.5818    3.4393 HW      1480 WAT      0.417000
   4551 H2         17.9033   25.4922    4.7852 HW      1480 WAT      0.417000
   4552 O           1.4022   18.9804   15.7111 OW      1481 WAT     -0.834000
   4553 H1          0.4917   19.2673   15.6402 HW      1481 WAT      0.417000
   4554 H2          1.3936   18.3270   16.4105 HW      1481 WAT      0.417000
   4555 O          14.9983    8.6090    3.8475 OW      1482 WAT     -0.834000
   4556 H1         15.7415    9.0143    3.4006 HW      1482 WAT      0.417000
   4557 H2         14.4586    9.3465    4.1319 HW      1482 WAT      0.417000
   4558 O           7.7430   24.0436   30.2489 OW      1483 WAT     -0.834000
   4559 H1          6.8364   24.3478   30.2071 HW      1483 WAT      0.417000
   4560 H2          7.6732   23.0920   30.3243 HW      1483 WAT      0.417000
   4561 O          28.6303   27.2916   17.3126 OW      1484 WAT     -0.834000
   4562 H1         28.0373   26.6659   17.7286 HW      1484 WAT      0.417000
   4563 H2         29.0666   27.7301   18.0431 HW      1484 WAT      0.417000
   4564 O          23.8312    3.0491   43.0958 OW      1485 WAT     -0.834000
   4565 H1         23.0192    2.5657   43.2479 HW      1485 WAT      0.417000
   4566 H2         23.5665    3.9689   43.0985 HW      1485 WAT      0.417000
   4567 O          33.6701   10.6563    0.7158 OW      1486 WAT     -0.834000
   4568 H1         34.4473   10.2052    1.0456 HW      1486 WAT      0.417000
   4569 H2         33.2371   10.0104    0.1576 HW      1486 WAT      0.417000
   4570 O           9.8971   31.0016    2.4450 OW      1487 WAT     -0.834000
   4571 H1         10.8203   31.1416    2.6558 HW      1487 WAT      0.417000
   4572 H2          9.4445   31.0846    3.2843 HW      1487 WAT      0.417000
   4573 O          18.6414   20.2636   20.8937 OW      1488 WAT     -0.834000
   4574 H1         18.9999   19.3980   21.0897 HW      1488 WAT      0.417000
   4575 H2         18.2264   20.5415   21.7102 HW      1488 WAT      0.417000
   4576 O          35.4558   35.7480   47.3926 OW      1489 WAT     -0.834000
   4577 H1         35.1143   35.8513   46.5044 HW      1489 WAT      0.417000
   4578 H2         34.6762   35.7234   47.9475 HW      1489 WAT      0.417000
   4579 O           8.9026   24.8860   38.4607 OW      1490 WAT     -0.834000
   4580 H1          8.5478   25.4227   37.7520 HW      1490 WAT      0.417000
   4581 H2          8.1976   24.8458   39.1068 HW      1490 WAT      0.417000
   4582 O          15.3122   24.5421    3.6372 OW      1491 WAT     -0.834000
   4583 H1         16.2499   24.7126    3.7260 HW      1491 WAT      0.417000
   4584 H2         15.1413   24.6257    2.6990 HW      1491 WAT      0.417000
   4585 O          26.6768   29.9481   19.9216 OW      1492 WAT     -0.834000
   4586 H1         27.1094   30.7094   20.3082 HW      1492 WAT      0.417000
   4587 H2         26.2676   29.5028   20.6636 HW      1492 WAT      0.417000
   4588 O           2.1953    7.6720   16.5223 OW      1493 WAT     -0.834000
   4589 H1          1.9750    8.5922   16.6668 HW      1493 WAT      0.417000
   4590 H2          2.7246    7.4302   17.2823 HW      1493 WAT      0.417000
   4591 O          12.3740   18.8260    2.2935 OW      1494 WAT     -0.834000
   4592 H1         12.6836   19.5824    1.7952 HW      1494 WAT      0.417000
   4593 H2         11.6046   18.5210    1.8126 HW      1494 WAT      0.417000
   4594 O          24.0585   14.0947   17.5544 OW      1495 WAT     -0.834000
   4595 H1         23.5811   14.8892   17.7932 HW      1495 WAT      0.417000
   4596 H2         24.5432   13.8596   18.3456 HW      1495 WAT      0.417000
   4597 O          16.9585   13.0538   39.7364 OW      1496 WAT     -0.834000
   4598 H1         17.3787   12.8760   38.8949 HW      1496 WAT      0.417000
   4599 H2         17.6257   12.8370   40.3877 HW      1496 WAT      0.417000
   4600 O           5.3306   34.4847    0.2727 OW      1497 WAT     -0.834000
   4601 H1          5.3835   35.0958   -0.4622 HW      1497 WAT      0.417000
   4602 H2          5.4033   35.0383    1.0502 HW      1497 WAT      0.417000
   4603 O          19.4044   25.4936   27.2302 OW      1498 WAT     -0.834000
   4604 H1         18.7830   26.0370   26.7457 HW      1498 WAT      0.417000
   4605 H2         20.1934   26.0316   27.2948 HW      1498 WAT      0.417000
   4606 O           3.9942   33.3646   28.6548 OW      1499 WAT     -0.834000
   4607 H1          4.6771   33.3214   27.9854 HW      1499 WAT      0.417000
   4608 H2          3.6537   34.2570   28.5922 HW      1499 WAT      0.417000
   4609 O          19.4231   26.0809   14.2403 OW      1500 WAT     -0.834000
   4610 H1         18.5559   25.8707   14.5868 HW      1500 WAT      0.417000
   4611 H2         20.0272   25.8334   14.9403 HW      1500 WAT      0.417000
   4612 O          13.9445    5.2325   36.4799 OW      1501 WAT     -0.834000
   4613 H1         13.2791    5.3923   37.1491 HW      1501 WAT      0.417000
   4614 H2         13.9646    4.2803   36.3845 HW      1501 WAT      0.417000
   4615 O           4.4543    8.9993   24.4087 OW      1502 WAT     -0.834000
   4616 H1          4.9201    9.7667   24.7408 HW      1502 WAT      0.417000
   4617 H2          5.0744    8.2780   24.5153 HW      1502 WAT      0.417000
   4618 O          32.0192    6.1770   49.3862 OW      1503 WAT     -0.834000
   4619 H1         31.5221    6.0293   50.1907 HW      1503 WAT      0.417000
   4620 H2         32.7629    6.7142   49.6593 HW      1503 WAT      0.417000
   4621 O           6.5275   32.5686    7.2923 OW      1504 WAT     -0.834000
   4622 H1          6.7200   31.6448    7.1319 HW      1504 WAT      0.417000
   4623 H2          5.7048   32.7258    6.8288 HW      1504 WAT      0.417000
   4624 O          15.2305    9.6548   26.1147 OW      1505 WAT     -0.834000
   4625 H1         14.8926    9.0490   26.7743 HW      1505 WAT      0.417000
   4626 H2         15.2900   10.4950   26.5694 HW      1505 WAT      0.417000
   4627 O          20.5424   31.8044   48.8118 OW      1506 WAT     -0.834000
   4628 H1         21.0960   31.4691   48.1066 HW      1506 WAT      0.417000
   4629 H2         20.2890   32.6806   48.5214 HW      1506 WAT      0.417000
   4630 O           0.3059   30.1037    9.3074 OW      1507 WAT     -0.834000
   4631 H1         -0.1601   30.4185    8.5328 HW      1507 WAT      0.417000
   4632 H2         -0.1011   29.2602    9.5054 HW      1507 WAT      0.417000
   4633 O          28.5425   26.7498    9.9971 OW      1508 WAT     -0.834000
   4634 H1         28.0855   27.0657    9.2176 HW      1508 WAT      0.417000
   4635 H2         27.8995   26.8318   10.7014 HW      1508 WAT      0.417000
   4636 O           5.7238   30.9851   23.7099 OW      1509 WAT     -0.834000
   4637 H1          6.4331   31.0005   23.0673 HW      1509 WAT      0.417000
   4638 H2          6.0425   30.4091   24.4048 HW      1509 WAT      0.417000
   4639 O          19.2964   16.2103    3.7810 OW      1510 WAT     -0.834000
   4640 H1         20.0583   16.2778    4.3566 HW      1510 WAT      0.417000
   4641 H2         19.0825   15.2774    3.7752 HW      1510 WAT      0.417000
   4642 O          17.1977   31.1011   18.9669 OW      1511 WAT     -0.834000
   4643 H1         17.3600   30.2933   18.4796 HW      1511 WAT      0.417000
   4644 H2         17.6648   30.9801   19.7935 HW      1511 WAT      0.417000
   4645 O          10.4080   28.2602    4.3537 OW      1512 WAT     -0.834000
   4646 H1         10.5751   28.6935    3.5167 HW      1512 WAT      0.417000
   4647 H2         10.9605   27.4788    4.3334 HW      1512 WAT      0.417000
   4648 O          19.6206   17.0592   28.4738 OW      1513 WAT     -0.834000
   4649 H1         20.4946   16.9859   28.0905 HW      1513 WAT      0.417000
   4650 H2         19.5197   17.9920   28.6633 HW      1513 WAT      0.417000
   4651 O           2.2222   23.3466    9.1317 OW      1514 WAT     -0.834000
   4652 H1          2.0930   23.4329    8.1872 HW      1514 WAT      0.417000
   4653 H2          2.0738   24.2276    9.4752 HW      1514 WAT      0.417000
   4654 O           1.3612    8.0811    6.0831 OW      1515 WAT     -0.834000
   4655 H1          1.9529    7.3790    5.8125 HW      1515 WAT      0.417000
   4656 H2          1.9091    8.8660    6.0916 HW      1515 WAT      0.417000
   4657 O           3.8551   26.4182    8.1288 OW      1516 WAT     -0.834000
   4658 H1          3.0547   26.3531    8.6497 HW      1516 WAT      0.417000
   4659 H2          3.5756   26.2214    7.2347 HW      1516 WAT      0.417000
   4660 O           1.7786   17.0472   17.7993 OW      1517 WAT     -0.834000
   4661 H1          1.6639   16.1396   18.0812 HW      1517 WAT      0.417000
   4662 H2          2.6057   17.3188   18.1973 HW      1517 WAT      0.417000
   4663 O           8.0472    0.3908    9.0945 OW      1518 WAT     -0.834000
   4664 H1          8.0105   -0.5466    8.9044 HW      1518 WAT      0.417000
   4665 H2          8.0310    0.8105    8.2343 HW      1518 WAT      0.417000
   4666 O           3.0551   29.9221   29.5646 OW      1519 WAT     -0.834000
   4667 H1          3.4276   29.1024   29.8896 HW      1519 WAT      0.417000
   4668 H2          2.8368   29.7402   28.6506 HW      1519 WAT      0.417000
   4669 O          14.5682   31.4550   51.3335 OW      1520 WAT     -0.834000
   4670 H1         15.4251   31.1222   51.0668 HW      1520 WAT      0.417000
   4671 H2         13.9539   31.0563   50.7172 HW      1520 WAT      0.417000
   4672 O          35.5773   32.4619   27.5114 OW      1521 WAT     -0.834000
   4673 H1         34.8943   33.0483   27.8366 HW      1521 WAT      0.417000
   4674 H2         36.0840   32.2294   28.2895 HW      1521 WAT      0.417000
   4675 O          27.4868   16.7598    6.8705 OW      1522 WAT     -0.834000
   4676 H1         27.4634   17.5668    6.3562 HW      1522 WAT      0.417000
   4677 H2         28.3552   16.7575    7.2732 HW      1522 WAT      0.417000
   4678 O          25.3830    2.1175   14.0258 OW      1523 WAT     -0.834000
   4679 H1         24.9395    2.9641   14.0795 HW      1523 WAT      0.417000
   4680 H2         26.1498    2.2832   13.4773 HW      1523 WAT      0.417000
   4681 O          35.7369    1.7140   18.9253 OW      1524 WAT     -0.834000
   4682 H1         36.4381    2.3633   18.8704 HW      1524 WAT      0.417000
   4683 H2         35.2557    1.9478   19.7191 HW      1524 WAT      0.417000
   4684 O           9.2305   27.9677    9.5896 OW      1525 WAT     -0.834000
   4685 H1          9.1549   28.8171   10.0244 HW      1525 WAT      0.417000
   4686 H2          8.3309   27.7355    9.3594 HW      1525 WAT      0.417000
   4687 O          11.2276   25.4625    4.0561 OW      1526 WAT     -0.834000
   4688 H1         12.0270   25.1512    4.4807 HW      1526 WAT      0.417000
   4689 H2         10.7073   24.6715    3.9156 HW      1526 WAT      0.417000
   4690 O          31.4410   24.4254   20.9254 OW      1527 WAT     -0.834000
   4691 H1         30.5296   24.1858   21.0933 HW      1527 WAT      0.417000
   4692 H2         31.3919   25.3021   20.5444 HW      1527 WAT      0.417000
   4693 O          11.8858   30.3943   22.1183 OW      1528 WAT     -0.834000
   4694 H1         12.0846   30.2470   23.0430 HW      1528 WAT      0.417000
   4695 H2         12.7144   30.2340   21.6667 HW      1528 WAT      0.417000
   4696 O          21.6688   34.2201   17.4761 OW      1529 WAT     -0.834000
   4697 H1         21.2483   33.4380   17.8337 HW      1529 WAT      0.417000
   4698 H2         21.4897   34.1799   16.5367 HW      1529 WAT      0.417000
   4699 O           0.7388   17.6801    6.0160 OW      1530 WAT     -0.834000
   4700 H1          0.6626   17.5441    6.9604 HW      1530 WAT      0.417000
   4701 H2          1.6687   17.5503    5.8295 HW      1530 WAT      0.417000
   4702 O           4.5923   23.6638   45.9011 OW      1531 WAT     -0.834000
   4703 H1          3.7855   23.2676   46.2305 HW      1531 WAT      0.417000
   4704 H2          4.4108   24.6035   45.8911 HW      1531 WAT      0.417000
   4705 O          12.9282   34.3267   45.7651 OW      1532 WAT     -0.834000
   4706 H1         12.6670   35.2399   45.8837 HW      1532 WAT      0.417000
   4707 H2         12.4099   34.0243   45.0194 HW      1532 WAT      0.417000
   4708 O           7.3019   36.0320   49.4927 OW      1533 WAT     -0.834000
   4709 H1          8.2455   36.0832   49.6445 HW      1533 WAT      0.417000
   4710 H2          7.2208   35.7215   48.5909 HW      1533 WAT      0.417000
   4711 O          24.6276   18.3176   48.6175 OW      1534 WAT     -0.834000
   4712 H1         24.5475   18.4170   47.6689 HW      1534 WAT      0.417000
   4713 H2         25.5344   18.0428   48.7538 HW      1534 WAT      0.417000
   4714 O          27.8904   19.3651   30.6251 OW      1535 WAT     -0.834000
   4715 H1         26.9424   19.2658   30.5380 HW      1535 WAT      0.417000
   4716 H2         28.2202   18.4687   30.6882 HW      1535 WAT      0.417000
   4717 O           0.9506   19.3459   23.3515 OW      1536 WAT     -0.834000
   4718 H1          1.7926   19.7641   23.1720 HW      1536 WAT      0.417000
   4719 H2          0.9020   19.3056   24.3067 HW      1536 WAT      0.417000
   4720 O          30.7296    3.0656   27.8669 OW      1537 WAT     -0.834000
   4721 H1         31.3198    2.4424   27.4432 HW      1537 WAT      0.417000
   4722 H2         29.9930    2.5325   28.1661 HW      1537 WAT      0.417000
   4723 O          27.0796   32.7319   15.1498 OW      1538 WAT     -0.834000
   4724 H1         26.2106   32.3653   14.9869 HW      1538 WAT      0.417000
   4725 H2         27.6023   32.4524   14.3982 HW      1538 WAT      0.417000
   4726 O           0.2470   25.8386   29.9030 OW      1539 WAT     -0.834000
   4727 H1          0.3759   26.2631   30.7512 HW      1539 WAT      0.417000
   4728 H2         -0.3200   25.0911   30.0929 HW      1539 WAT      0.417000
   4729 O          23.5780   26.4680   11.6692 OW      1540 WAT     -0.834000
   4730 H1         22.6825   26.1386   11.7450 HW      1540 WAT      0.417000
   4731 H2         23.5574   27.3202   12.1046 HW      1540 WAT      0.417000
   4732 O          33.5534   10.6774   38.3811 OW      1541 WAT     -0.834000
   4733 H1         33.9473   10.2270   37.6339 HW      1541 WAT      0.417000
   4734 H2         33.3981    9.9849   39.0234 HW      1541 WAT      0.417000
   4735 O           7.4731   19.1007    1.7641 OW      1542 WAT     -0.834000
   4736 H1          7.8961   19.7746    1.2320 HW      1542 WAT      0.417000
   4737 H2          7.4339   19.4788    2.6426 HW      1542 WAT      0.417000
   4738 O          25.6441   30.6887   51.2157 OW      1543 WAT     -0.834000
   4739 H1         25.9392   29.8925   50.7738 HW      1543 WAT      0.417000
   4740 H2         26.4518   31.1337   51.4722 HW      1543 WAT      0.417000
   4741 O          35.3083    0.2163   40.9884 OW      1544 WAT     -0.834000
   4742 H1         34.4434    0.2521   41.3969 HW      1544 WAT      0.417000
   4743 H2         35.1495   -0.1634   40.1242 HW      1544 WAT      0.417000
   4744 O          27.3958   10.0400   46.0267 OW      1545 WAT     -0.834000
   4745 H1         26.7050   10.5078   46.4959 HW      1545 WAT      0.417000
   4746 H2         27.1506    9.1174   46.0968 HW      1545 WAT      0.417000
   4747 O          10.4976   12.5306   15.4663 OW      1546 WAT     -0.834000
   4748 H1         11.1042   12.2760   14.7710 HW      1546 WAT      0.417000
   4749 H2          9.7269   12.8591   15.0034 HW      1546 WAT      0.417000
   4750 O          19.2233   24.6170    6.4222 OW      1547 WAT     -0.834000
   4751 H1         20.0677   24.3646    6.0489 HW      1547 WAT      0.417000
   4752 H2         19.4472   25.0834    7.2276 HW      1547 WAT      0.417000
   4753 O          30.9242    8.6917   19.7757 OW      1548 WAT     -0.834000
   4754 H1         31.0385    7.9446   20.3631 HW      1548 WAT      0.417000
   4755 H2         31.7616    8.7671   19.3182 HW      1548 WAT      0.417000
   4756 O          30.2863   12.1157   16.5313 OW      1549 WAT     -0.834000
   4757 H1         29.4324   11.9683   16.1247 HW      1549 WAT      0.417000
   4758 H2         30.7575   11.2922   16.4040 HW      1549 WAT      0.417000
   4759 O          11.7982   12.6519   40.8819 OW      1550 WAT     -0.834000
   4760 H1         11.8169   13.3861   40.2681 HW      1550 WAT      0.417000
   4761 H2         12.6288   12.7131   41.3538 HW      1550 WAT      0.417000
   4762 O          35.9716   10.6954   44.3263 OW      1551 WAT     -0.834000
   4763 H1         36.7797   10.4047   44.7490 HW      1551 WAT      0.417000
   4764 H2         35.6739    9.9336   43.8290 HW      1551 WAT      0.417000
   4765 O          16.2155    5.7358   12.6029 OW      1552 WAT     -0.834000
   4766 H1         16.8859    5.9339   13.2567 HW      1552 WAT      0.417000
   4767 H2         16.4218    4.8483   12.3096 HW      1552 WAT      0.417000
   4768 O          33.8682    4.5823    4.6979 OW      1553 WAT     -0.834000
   4769 H1         33.6182    4.3541    5.5933 HW      1553 WAT      0.417000
   4770 H2         34.5908    3.9891    4.4924 HW      1553 WAT      0.417000
   4771 O          12.1464    2.3088   12.8909 OW      1554 WAT     -0.834000
   4772 H1         11.4185    2.5703   12.3270 HW      1554 WAT      0.417000
   4773 H2         12.4794    1.5037   12.4943 HW      1554 WAT      0.417000
   4774 O          30.4758   15.8211    0.8737 OW      1555 WAT     -0.834000
   4775 H1         30.7225   16.7443    0.8174 HW      1555 WAT      0.417000
   4776 H2         30.7891   15.4391    0.0538 HW      1555 WAT      0.417000
   4777 O           6.6866   30.4286   51.2041 OW      1556 WAT     -0.834000
   4778 H1          6.4780   29.5568   51.5397 HW      1556 WAT      0.417000
   4779 H2          6.7029   30.3216   50.2530 HW      1556 WAT      0.417000
   4780 O          30.5101   13.7334   39.1827 OW      1557 WAT     -0.834000
   4781 H1         31.0576   13.8697   39.9559 HW      1557 WAT      0.417000
   4782 H2         30.8124   12.9013   38.8188 HW      1557 WAT      0.417000
   4783 O          18.9011   10.1741   40.6078 OW      1558 WAT     -0.834000
   4784 H1         18.5708   10.3249   39.7221 HW      1558 WAT      0.417000
   4785 H2         18.8477    9.2256   40.7250 HW      1558 WAT      0.417000
   4786 O           8.4191   27.2376   14.9413 OW      1559 WAT     -0.834000
   4787 H1          7.7676   27.7083   15.4611 HW      1559 WAT      0.417000
   4788 H2          8.0572   27.2283   14.0551 HW      1559 WAT      0.417000
   4789 O          33.3551   19.9719   16.6619 OW      1560 WAT     -0.834000
   4790 H1         33.5499   19.0403   16.7636 HW      1560 WAT      0.417000
   4791 H2         33.3196   20.3083   17.5574 HW      1560 WAT      0.417000
   4792 O          28.6286   35.3238   50.8622 OW      1561 WAT     -0.834000
   4793 H1         29.5227   35.2555   50.5275 HW      1561 WAT      0.417000
   4794 H2         28.0816   34.9779   50.1569 HW      1561 WAT      0.417000
   4795 O           6.3863   28.8365    4.1621 OW      1562 WAT     -0.834000
   4796 H1          6.5534   29.6073    3.6198 HW      1562 WAT      0.417000
   4797 H2          7.0744   28.8577    4.8271 HW      1562 WAT      0.417000
   4798 O           4.5774   22.7511    0.0021 OW      1563 WAT     -0.834000
   4799 H1          5.0661   23.5641   -0.1256 HW      1563 WAT      0.417000
   4800 H2          3.8164   23.0083    0.5227 HW      1563 WAT      0.417000
   4801 O          27.7434   23.3456   17.8667 OW      1564 WAT     -0.834000
   4802 H1         26.9260   23.5623   17.4183 HW      1564 WAT      0.417000
   4803 H2         28.0492   22.5479   17.4351 HW      1564 WAT      0.417000
   4804 O           3.3295   27.5939   25.6818 OW      1565 WAT     -0.834000
   4805 H1          3.2187   28.4143   26.1623 HW      1565 WAT      0.417000
   4806 H2          4.1079   27.1931   26.0686 HW      1565 WAT      0.417000
   4807 O          13.4450    7.8677   22.0677 OW      1566 WAT     -0.834000
   4808 H1         12.9869    7.3429   22.7242 HW      1566 WAT      0.417000
   4809 H2         13.9011    8.5399   22.5741 HW      1566 WAT      0.417000
   4810 O           4.3558   20.3505   30.6457 OW      1567 WAT     -0.834000
   4811 H1          4.1875   19.7879   29.8898 HW      1567 WAT      0.417000
   4812 H2          3.9064   19.9174   31.3714 HW      1567 WAT      0.417000
   4813 O          16.7441    5.8499   35.6789 OW      1568 WAT     -0.834000
   4814 H1         15.9181    5.4688   35.9768 HW      1568 WAT      0.417000
   4815 H2         16.5054    6.3680   34.9103 HW      1568 WAT      0.417000
   4816 O           9.7375   23.1482   11.3566 OW      1569 WAT     -0.834000
   4817 H1         10.6463   23.0162   11.0865 HW      1569 WAT      0.417000
   4818 H2          9.7960   23.7167   12.1244 HW      1569 WAT      0.417000
   4819 O           5.9148   -0.0618   40.8575 OW      1570 WAT     -0.834000
   4820 H1          6.1236    0.8707   40.9133 HW      1570 WAT      0.417000
   4821 H2          5.1347   -0.1656   41.4025 HW      1570 WAT      0.417000
   4822 O           4.8767   13.5700   11.6725 OW      1571 WAT     -0.834000
   4823 H1          4.7433   14.4942   11.8827 HW      1571 WAT      0.417000
   4824 H2          4.4120   13.4429   10.8454 HW      1571 WAT      0.417000
   4825 O          19.0043   23.2739   21.4524 OW      1572 WAT     -0.834000
   4826 H1         18.0909   23.3177   21.7351 HW      1572 WAT      0.417000
   4827 H2         19.0441   22.5004   20.8900 HW      1572 WAT      0.417000
   4828 O          34.0395   33.6295   38.2226 OW      1573 WAT     -0.834000
   4829 H1         33.1222   33.4365   38.0284 HW      1573 WAT      0.417000
   4830 H2         34.2661   33.0273   38.9312 HW      1573 WAT      0.417000
   4831 O           1.9790   22.5245   23.8642 OW      1574 WAT     -0.834000
   4832 H1          2.4502   23.0410   23.2105 HW      1574 WAT      0.417000
   4833 H2          1.0964   22.8949   23.8715 HW      1574 WAT      0.417000
   4834 O          19.9120   22.2919   26.0260 OW      1575 WAT     -0.834000
   4835 H1         19.6538   21.5292   25.5085 HW      1575 WAT      0.417000
   4836 H2         19.1186   22.8245   26.0799 HW      1575 WAT      0.417000
   4837 O           2.7207   30.2786    2.0964 OW      1576 WAT     -0.834000
   4838 H1          3.4491   30.8665    1.8962 HW      1576 WAT      0.417000
   4839 H2          2.0618   30.4784    1.4315 HW      1576 WAT      0.417000
   4840 O           6.7232   14.8425   21.9006 OW      1577 WAT     -0.834000
   4841 H1          7.5964   15.1883   22.0854 HW      1577 WAT      0.417000
   4842 H2          6.7632   13.9283   22.1814 HW      1577 WAT      0.417000
   4843 O           7.9565    7.4528    6.3462 OW      1578 WAT     -0.834000
   4844 H1          8.3783    6.6077    6.5016 HW      1578 WAT      0.417000
   4845 H2          7.0639    7.3385    6.6724 HW      1578 WAT      0.417000
   4846 O          33.4468   17.1519   22.2079 OW      1579 WAT     -0.834000
   4847 H1         33.1237   16.2799   22.4351 HW      1579 WAT      0.417000
   4848 H2         33.8277   17.0465   21.3361 HW      1579 WAT      0.417000
   4849 O          30.2642   10.6075   38.2330 OW      1580 WAT     -0.834000
   4850 H1         30.6006    9.7635   38.5343 HW      1580 WAT      0.417000
   4851 H2         30.7179   10.7644   37.4050 HW      1580 WAT      0.417000
   4852 O          23.5578    4.1566    8.9807 OW      1581 WAT     -0.834000
   4853 H1         23.4624    3.2169    8.8252 HW      1581 WAT      0.417000
   4854 H2         23.5795    4.5432    8.1053 HW      1581 WAT      0.417000
   4855 O           1.8591   11.0676   23.8697 OW      1582 WAT     -0.834000
   4856 H1          2.4379   10.8718   24.6066 HW      1582 WAT      0.417000
   4857 H2          1.2949   11.7719   24.1889 HW      1582 WAT      0.417000
   4858 O           5.0875   26.4668   43.8899 OW      1583 WAT     -0.834000
   4859 H1          4.6728   27.1515   43.3649 HW      1583 WAT      0.417000
   4860 H2          5.8787   26.2374   43.4024 HW      1583 WAT      0.417000
   4861 O           8.1533   15.2044    6.0917 OW      1584 WAT     -0.834000
   4862 H1          8.1778   14.4433    6.6716 HW      1584 WAT      0.417000
   4863 H2          7.4945   15.7802    6.4798 HW      1584 WAT      0.417000
   4864 O          34.3437   22.9741    8.4086 OW      1585 WAT     -0.834000
   4865 H1         33.7313   22.4666    7.8760 HW      1585 WAT      0.417000
   4866 H2         35.0690   22.3729    8.5780 HW      1585 WAT      0.417000
   4867 O           1.0321   19.3383   20.1143 OW      1586 WAT     -0.834000
   4868 H1          1.9773   19.2495   19.9921 HW      1586 WAT      0.417000
   4869 H2          0.8794   20.2832   20.1230 HW      1586 WAT      0.417000
   4870 O           1.7997   27.8118   23.4035 OW      1587 WAT     -0.834000
   4871 H1          2.2638   27.7808   24.2401 HW      1587 WAT      0.417000
   4872 H2          2.4261   27.4635   22.7691 HW      1587 WAT      0.417000
   4873 O          33.0326   16.8452    2.4519 OW      1588 WAT     -0.834000
   4874 H1         33.4663   16.5268    3.2435 HW      1588 WAT      0.417000
   4875 H2         32.4901   16.1109    2.1641 HW      1588 WAT      0.417000
   4876 O           5.6826    1.7644    2.1049 OW      1589 WAT     -0.834000
   4877 H1          4.8204    2.1719    2.1878 HW      1589 WAT      0.417000
   4878 H2          5.8018    1.6457    1.1626 HW      1589 WAT      0.417000
   4879 O          28.9000   31.9858    5.1984 OW      1590 WAT     -0.834000
   4880 H1         28.6491   31.4899    5.9777 HW      1590 WAT      0.417000
   4881 H2         28.6802   31.4094    4.4666 HW      1590 WAT      0.417000
   4882 O          21.9460    7.6083    3.1092 OW      1591 WAT     -0.834000
   4883 H1         21.6865    8.0489    3.9183 HW      1591 WAT      0.417000
   4884 H2         21.6881    8.2132    2.4137 HW      1591 WAT      0.417000
   4885 O          17.9628    0.4299   37.1680 OW      1592 WAT     -0.834000
   4886 H1         17.3783    1.1866   37.1238 HW      1592 WAT      0.417000
   4887 H2         18.2438    0.3973   38.0824 HW      1592 WAT      0.417000
   4888 O          14.6411   23.9885   43.1112 OW      1593 WAT     -0.834000
   4889 H1         14.1517   24.8044   43.0057 HW      1593 WAT      0.417000
   4890 H2         14.9372   23.7709   42.2274 HW      1593 WAT      0.417000
   4891 O          16.6830   10.1840   21.0637 OW      1594 WAT     -0.834000
   4892 H1         17.3806    9.8054   20.5287 HW      1594 WAT      0.417000
   4893 H2         16.9590   11.0884   21.2121 HW      1594 WAT      0.417000
   4894 O          35.2520    5.3251   50.9811 OW      1595 WAT     -0.834000
   4895 H1         34.9240    5.7288   51.7846 HW      1595 WAT      0.417000
   4896 H2         36.0266    4.8356   51.2579 HW      1595 WAT      0.417000
   4897 O          17.8538   18.8933    4.3409 OW      1596 WAT     -0.834000
   4898 H1         17.8661   18.0956    3.8120 HW      1596 WAT      0.417000
   4899 H2         16.9320   19.1503    4.3652 HW      1596 WAT      0.417000
   4900 O           2.6015   15.2007   50.0954 OW      1597 WAT     -0.834000
   4901 H1          2.8653   15.1005   49.1807 HW      1597 WAT      0.417000
   4902 H2          1.6466   15.1369   50.0777 HW      1597 WAT      0.417000
   4903 O          31.7473   32.4011   48.4331 OW      1598 WAT     -0.834000
   4904 H1         32.6339   32.4341   48.0736 HW      1598 WAT      0.417000
   4905 H2         31.4616   31.4999   48.2833 HW      1598 WAT      0.417000
   4906 O           7.2410   21.2501   32.1540 OW      1599 WAT     -0.834000
   4907 H1          6.3703   21.6243   32.2883 HW      1599 WAT      0.417000
   4908 H2          7.6479   21.2734   33.0201 HW      1599 WAT      0.417000
   4909 O          19.2922   30.9462   28.1114 OW      1600 WAT     -0.834000
   4910 H1         20.1930   30.6554   28.2535 HW      1600 WAT      0.417000
   4911 H2         19.2840   31.8553   28.4109 HW      1600 WAT      0.417000
   4912 O          32.4218   24.1502   39.3955 OW      1601 WAT     -0.834000
   4913 H1         33.2601   23.7246   39.2154 HW      1601 WAT      0.417000
   4914 H2         32.6205   24.7914   40.0778 HW      1601 WAT      0.417000
   4915 O          19.6795   14.4633    6.4808 OW      1602 WAT     -0.834000
   4916 H1         19.9981   14.0018    7.2565 HW      1602 WAT      0.417000
   4917 H2         20.3569   15.1133    6.2937 HW      1602 WAT      0.417000
   4918 O           0.2954   30.9283   45.6626 OW      1603 WAT     -0.834000
   4919 H1          0.4366   30.3427   44.9188 HW      1603 WAT      0.417000
   4920 H2          1.1709   31.0777   46.0195 HW      1603 WAT      0.417000
   4921 O          24.4734   31.6840   34.8809 OW      1604 WAT     -0.834000
   4922 H1         25.1546   31.0265   35.0215 HW      1604 WAT      0.417000
   4923 H2         23.6571   31.1843   34.8679 HW      1604 WAT      0.417000
   4924 O           0.8740   34.2534    2.2259 OW      1605 WAT     -0.834000
   4925 H1          0.6740   35.0201    1.6888 HW      1605 WAT      0.417000
   4926 H2          0.2976   34.3363    2.9856 HW      1605 WAT      0.417000
   4927 O           6.7848   11.3072    5.4472 OW      1606 WAT     -0.834000
   4928 H1          7.4640   10.7454    5.8203 HW      1606 WAT      0.417000
   4929 H2          6.5365   11.8911    6.1639 HW      1606 WAT      0.417000
   4930 O          15.6699   33.1599   31.6063 OW      1607 WAT     -0.834000
   4931 H1         15.4096   34.0558   31.8203 HW      1607 WAT      0.417000
   4932 H2         14.8824   32.6382   31.7609 HW      1607 WAT      0.417000
   4933 O          29.1254   11.0373   12.2341 OW      1608 WAT     -0.834000
   4934 H1         29.1113   10.1077   12.4617 HW      1608 WAT      0.417000
   4935 H2         30.0555   11.2567   12.1801 HW      1608 WAT      0.417000
   4936 O          12.0456   34.5374   31.7964 OW      1609 WAT     -0.834000
   4937 H1         12.7698   34.3725   32.4002 HW      1609 WAT      0.417000
   4938 H2         12.2372   35.3970   31.4216 HW      1609 WAT      0.417000
   4939 O          14.8059   22.3117   40.7123 OW      1610 WAT     -0.834000
   4940 H1         14.7846   21.3666   40.8621 HW      1610 WAT      0.417000
   4941 H2         14.0489   22.4827   40.1521 HW      1610 WAT      0.417000
   4942 O           1.0056   32.4551   29.4228 OW      1611 WAT     -0.834000
   4943 H1          0.8079   32.1846   30.3194 HW      1611 WAT      0.417000
   4944 H2          1.9388   32.6677   29.4369 HW      1611 WAT      0.417000
   4945 O           8.3890   25.2845   23.8435 OW      1612 WAT     -0.834000
   4946 H1          8.8790   24.4685   23.9450 HW      1612 WAT      0.417000
   4947 H2          8.9897   25.8686   23.3807 HW      1612 WAT      0.417000
   4948 O          27.9617   12.0417   38.3081 OW      1613 WAT     -0.834000
   4949 H1         28.2880   12.9388   38.2377 HW      1613 WAT      0.417000
   4950 H2         28.7407   11.4948   38.2062 HW      1613 WAT      0.417000
   4951 O          29.2127    3.2623   50.0418 OW      1614 WAT     -0.834000
   4952 H1         29.0069    2.6065   49.3756 HW      1614 WAT      0.417000
   4953 H2         28.5832    3.0965   50.7436 HW      1614 WAT      0.417000
   4954 O          15.2562   19.6641   40.7937 OW      1615 WAT     -0.834000
   4955 H1         14.9181   18.7856   40.9672 HW      1615 WAT      0.417000
   4956 H2         16.1416   19.6562   41.1576 HW      1615 WAT      0.417000
   4957 O          18.9578   12.9098   29.2572 OW      1616 WAT     -0.834000
   4958 H1         18.5270   12.4354   28.5461 HW      1616 WAT      0.417000
   4959 H2         19.8807   12.9340   29.0044 HW      1616 WAT      0.417000
   4960 O          21.6447    9.7119    1.2623 OW      1617 WAT     -0.834000
   4961 H1         20.8652    9.9700    0.7704 HW      1617 WAT      0.417000
   4962 H2         22.3341    9.6465    0.6015 HW      1617 WAT      0.417000
   4963 O           5.9865   10.9954    2.7931 OW      1618 WAT     -0.834000
   4964 H1          5.0665   11.2111    2.6404 HW      1618 WAT      0.417000
   4965 H2          6.1590   11.2990    3.6843 HW      1618 WAT      0.417000
   4966 O          25.6105   33.5422   22.8704 OW      1619 WAT     -0.834000
   4967 H1         25.3928   33.6338   21.9428 HW      1619 WAT      0.417000
   4968 H2         24.8540   33.0960   23.2511 HW      1619 WAT      0.417000
   4969 O          31.4795   12.4354   51.0611 OW      1620 WAT     -0.834000
   4970 H1         32.1182   12.8536   50.4837 HW      1620 WAT      0.417000
   4971 H2         31.9644   11.7239   51.4792 HW      1620 WAT      0.417000
   4972 O          20.9292    3.3591   20.2782 OW      1621 WAT     -0.834000
   4973 H1         21.7648    3.6617   19.9224 HW      1621 WAT      0.417000
   4974 H2         20.4332    3.0705   19.5121 HW      1621 WAT      0.417000
   4975 O           8.3457    9.7533   29.2949 OW      1622 WAT     -0.834000
   4976 H1          7.8887   10.3535   29.8841 HW      1622 WAT      0.417000
   4977 H2          9.2498   10.0675   29.2871 HW      1622 WAT      0.417000
   4978 O          30.9904    0.4828   21.2173 OW      1623 WAT     -0.834000
   4979 H1         30.6561    0.5962   22.1070 HW      1623 WAT      0.417000
   4980 H2         30.2072    0.3605   20.6808 HW      1623 WAT      0.417000
   4981 O           7.7319   28.3590   39.0846 OW      1624 WAT     -0.834000
   4982 H1          7.5399   27.9078   38.2626 HW      1624 WAT      0.417000
   4983 H2          8.3148   29.0757   38.8340 HW      1624 WAT      0.417000
   4984 O          13.4065    7.3924   14.0025 OW      1625 WAT     -0.834000
   4985 H1         12.7383    7.6572   14.6346 HW      1625 WAT      0.417000
   4986 H2         13.5128    6.4520   14.1460 HW      1625 WAT      0.417000
   4987 O          35.1653   33.3771   44.5843 OW      1626 WAT     -0.834000
   4988 H1         35.2630   32.4930   44.9380 HW      1626 WAT      0.417000
   4989 H2         34.2398   33.5853   44.7119 HW      1626 WAT      0.417000
   4990 O          34.2667   31.4162   46.7390 OW      1627 WAT     -0.834000
   4991 H1         34.5702   32.0705   47.3682 HW      1627 WAT      0.417000
   4992 H2         35.0434   30.8911   46.5460 HW      1627 WAT      0.417000
   4993 O          23.2378   10.1396   28.2908 OW      1628 WAT     -0.834000
   4994 H1         23.5027   10.9079   27.7852 HW      1628 WAT      0.417000
   4995 H2         23.4326    9.3974   27.7185 HW      1628 WAT      0.417000
   4996 O          12.9059   31.4868   14.1664 OW      1629 WAT     -0.834000
   4997 H1         12.8344   30.9434   13.3817 HW      1629 WAT      0.417000
   4998 H2         13.4089   32.2506   13.8837 HW      1629 WAT      0.417000
   4999 O           5.3154    8.6902    4.3204 OW      1630 WAT     -0.834000
   5000 H1          5.9728    9.3800    4.2297 HW      1630 WAT      0.417000
   5001 H2          5.5067    8.0817    3.6067 HW      1630 WAT      0.417000
   5002 O          34.1332   10.4729   22.8456 OW      1631 WAT     -0.834000
   5003 H1         33.9458    9.5522   22.6624 HW      1631 WAT      0.417000
   5004 H2         33.7261   10.9488   22.1217 HW      1631 WAT      0.417000
   5005 O          26.2142   20.8409   20.3613 OW      1632 WAT     -0.834000
   5006 H1         26.2614   21.4855   21.0673 HW      1632 WAT      0.417000
   5007 H2         25.2892   20.8216   20.1160 HW      1632 WAT      0.417000
   5008 O           6.3681   29.8190   29.1040 OW      1633 WAT     -0.834000
   5009 H1          6.3583   30.7003   29.4777 HW      1633 WAT      0.417000
   5010 H2          5.6824   29.3498   29.5793 HW      1633 WAT      0.417000
   5011 O           2.9197    6.6254    3.4461 OW      1634 WAT     -0.834000
   5012 H1          3.8241    6.7962    3.1833 HW      1634 WAT      0.417000
   5013 H2          2.7579    5.7219    3.1745 HW      1634 WAT      0.417000
   5014 O           9.4517    7.7372   17.3930 OW      1635 WAT     -0.834000
   5015 H1         10.3576    8.0323   17.4861 HW      1635 WAT      0.417000
   5016 H2          9.2218    7.3937   18.2563 HW      1635 WAT      0.417000
   5017 O           5.2117   21.8628    5.8352 OW      1636 WAT     -0.834000
   5018 H1          5.8654   22.2109    5.2289 HW      1636 WAT      0.417000
   5019 H2          5.4375   20.9371    5.9255 HW      1636 WAT      0.417000
   5020 O          24.0072   24.9735    2.1820 OW      1637 WAT     -0.834000
   5021 H1         23.5550   25.8090    2.2985 HW      1637 WAT      0.417000
   5022 H2         24.2729   24.9710    1.2624 HW      1637 WAT      0.417000
   5023 O          10.1429   25.6224   19.9545 OW      1638 WAT     -0.834000
   5024 H1         10.5217   25.9849   20.7554 HW      1638 WAT      0.417000
   5025 H2          9.7963   26.3829   19.4879 HW      1638 WAT      0.417000
   5026 O          24.7409   35.4387   32.6629 OW      1639 WAT     -0.834000
   5027 H1         23.9832   34.9302   32.3740 HW      1639 WAT      0.417000
   5028 H2         25.0591   34.9755   33.4377 HW      1639 WAT      0.417000
   5029 O          31.5946    7.6416   46.8758 OW      1640 WAT     -0.834000
   5030 H1         31.8901    7.6367   47.7862 HW      1640 WAT      0.417000
   5031 H2         30.9036    8.3035   46.8519 HW      1640 WAT      0.417000
   5032 O          18.0059   20.8443   44.7890 OW      1641 WAT     -0.834000
   5033 H1         18.2928   20.6314   45.6770 HW      1641 WAT      0.417000
   5034 H2         17.1330   21.2203   44.9030 HW      1641 WAT      0.417000
   5035 O           7.4106    1.6580    6.7769 OW      1642 WAT     -0.834000
   5036 H1          7.4173    2.5455    7.1354 HW      1642 WAT      0.417000
   5037 H2          6.4861    1.4737    6.6108 HW      1642 WAT      0.417000
   5038 O          17.6464   28.4647   18.4775 OW      1643 WAT     -0.834000
   5039 H1         17.9610   27.5728   18.3296 HW      1643 WAT      0.417000
   5040 H2         16.7257   28.4402   18.2171 HW      1643 WAT      0.417000
   5041 O          21.2699   18.7148    7.7840 OW      1644 WAT     -0.834000
   5042 H1         20.5613   18.8248    7.1500 HW      1644 WAT      0.417000
   5043 H2         21.8888   19.4146    7.5754 HW      1644 WAT      0.417000
   5044 O          27.4169   29.0040   41.6541 OW      1645 WAT     -0.834000
   5045 H1         26.9807   29.3396   42.4373 HW      1645 WAT      0.417000
   5046 H2         26.7944   29.1658   40.9453 HW      1645 WAT      0.417000
   5047 O          14.4500    4.4804   41.5338 OW      1646 WAT     -0.834000
   5048 H1         14.7802    4.5264   42.4311 HW      1646 WAT      0.417000
   5049 H2         15.1542    4.8487   41.0003 HW      1646 WAT      0.417000
   5050 O           3.6559    2.1625   12.5597 OW      1647 WAT     -0.834000
   5051 H1          3.9038    1.5072   11.9076 HW      1647 WAT      0.417000
   5052 H2          3.8504    3.0015   12.1420 HW      1647 WAT      0.417000
   5053 O          15.6366   33.4955   49.4309 OW      1648 WAT     -0.834000
   5054 H1         15.1507   33.0477   50.1235 HW      1648 WAT      0.417000
   5055 H2         15.2014   33.2278   48.6215 HW      1648 WAT      0.417000
   5056 O          11.6028    6.4954   44.0521 OW      1649 WAT     -0.834000
   5057 H1         11.4234    7.3099   44.5217 HW      1649 WAT      0.417000
   5058 H2         12.0641    6.7721   43.2603 HW      1649 WAT      0.417000
   5059 O          24.9917    4.4491   48.2998 OW      1650 WAT     -0.834000
   5060 H1         24.2012    4.2569   47.7954 HW      1650 WAT      0.417000
   5061 H2         25.1674    5.3740   48.1264 HW      1650 WAT      0.417000
   5062 O          19.9867    2.8288   10.0206 OW      1651 WAT     -0.834000
   5063 H1         20.0521    3.0005    9.0812 HW      1651 WAT      0.417000
   5064 H2         19.7385    3.6712   10.4014 HW      1651 WAT      0.417000
   5065 O          32.4528    1.3401   42.4914 OW      1652 WAT     -0.834000
   5066 H1         32.1072    0.7029   41.8662 HW      1652 WAT      0.417000
   5067 H2         32.8183    2.0367   41.9461 HW      1652 WAT      0.417000
   5068 O           6.8967   35.6586   46.7465 OW      1653 WAT     -0.834000
   5069 H1          6.2414   36.3550   46.7025 HW      1653 WAT      0.417000
   5070 H2          6.8314   35.2145   45.9011 HW      1653 WAT      0.417000
   5071 O          15.8351   36.0995   12.1832 OW      1654 WAT     -0.834000
   5072 H1         16.1704   35.7361   11.3636 HW      1654 WAT      0.417000
   5073 H2         16.0935   35.4638   12.8506 HW      1654 WAT      0.417000
   5074 O           8.6351   22.7764   45.0456 OW      1655 WAT     -0.834000
   5075 H1          8.3644   22.9366   45.9496 HW      1655 WAT      0.417000
   5076 H2          7.8273   22.5337   44.5931 HW      1655 WAT      0.417000
   5077 O          26.8137    4.7986   37.6905 OW      1656 WAT     -0.834000
   5078 H1         27.6924    4.9229   37.3317 HW      1656 WAT      0.417000
   5079 H2         26.9557    4.3399   38.5185 HW      1656 WAT      0.417000
   5080 O          12.9186    8.4409   31.7583 OW      1657 WAT     -0.834000
   5081 H1         13.5614    7.7612   31.5558 HW      1657 WAT      0.417000
   5082 H2         13.3871    9.2635   31.6163 HW      1657 WAT      0.417000
   5083 O          32.9112   17.7253   39.5772 OW      1658 WAT     -0.834000
   5084 H1         33.8262   17.5462   39.3603 HW      1658 WAT      0.417000
   5085 H2         32.8949   17.7639   40.5335 HW      1658 WAT      0.417000
   5086 O           2.2780   10.6351   32.4959 OW      1659 WAT     -0.834000
   5087 H1          1.6173   10.9183   31.8639 HW      1659 WAT      0.417000
   5088 H2          1.7751   10.2335   33.2045 HW      1659 WAT      0.417000
   5089 O           8.6321   14.3200   37.9468 OW      1660 WAT     -0.834000
   5090 H1          9.0414   14.7140   38.7172 HW      1660 WAT      0.417000
   5091 H2          7.7601   14.0612   38.2448 HW      1660 WAT      0.417000
   5092 O          31.0967    5.1331    0.1968 OW      1661 WAT     -0.834000
   5093 H1         30.3363    4.5619    0.0889 HW      1661 WAT      0.417000
   5094 H2         31.3884    4.9767    1.0949 HW      1661 WAT      0.417000
   5095 O          30.8276   15.6830   49.4780 OW      1662 WAT     -0.834000
   5096 H1         30.5161   14.9418   48.9585 HW      1662 WAT      0.417000
   5097 H2         31.7260   15.8241   49.1794 HW      1662 WAT      0.417000
   5098 O          19.7918    2.8602   38.7252 OW      1663 WAT     -0.834000
   5099 H1         19.4344    3.5253   38.1370 HW      1663 WAT      0.417000
   5100 H2         20.7172    2.8024   38.4875 HW      1663 WAT      0.417000
   5101 O          32.7869   21.6856   31.2792 OW      1664 WAT     -0.834000
   5102 H1         32.9813   22.0752   32.1317 HW      1664 WAT      0.417000
   5103 H2         32.4970   20.7964   31.4828 HW      1664 WAT      0.417000
   5104 O          23.7440   23.6462   27.1407 OW      1665 WAT     -0.834000
   5105 H1         24.6122   23.3355   26.8840 HW      1665 WAT      0.417000
   5106 H2         23.5201   23.1228   27.9102 HW      1665 WAT      0.417000
   5107 O          28.1411    9.4726   33.1294 OW      1666 WAT     -0.834000
   5108 H1         28.1406   10.4007   32.8954 HW      1666 WAT      0.417000
   5109 H2         27.7538    9.4460   34.0044 HW      1666 WAT      0.417000
   5110 O          17.2504   20.7979   26.6928 OW      1667 WAT     -0.834000
   5111 H1         16.8693   20.9814   27.5515 HW      1667 WAT      0.417000
   5112 H2         17.2216   21.6373   26.2337 HW      1667 WAT      0.417000
   5113 O          30.2148    1.3124    5.1980 OW      1668 WAT     -0.834000
   5114 H1         30.8471    1.8688    4.7431 HW      1668 WAT      0.417000
   5115 H2         29.4857    1.8973    5.4041 HW      1668 WAT      0.417000
   5116 O          23.4834   27.6803    6.5708 OW      1669 WAT     -0.834000
   5117 H1         23.5520   28.3803    7.2202 HW      1669 WAT      0.417000
   5118 H2         23.0251   28.0823    5.8328 HW      1669 WAT      0.417000
   5119 O          32.9158   33.3714   34.1346 OW      1670 WAT     -0.834000
   5120 H1         32.9815   32.5698   33.6157 HW      1670 WAT      0.417000
   5121 H2         33.7962   33.7463   34.1087 HW      1670 WAT      0.417000
   5122 O          20.0752   33.8300   25.7413 OW      1671 WAT     -0.834000
   5123 H1         20.8516   33.9143   26.2948 HW      1671 WAT      0.417000
   5124 H2         20.0506   32.9033   25.5028 HW      1671 WAT      0.417000
   5125 O          35.3384    0.4144   50.2660 OW      1672 WAT     -0.834000
   5126 H1         34.8157    0.0866   49.5342 HW      1672 WAT      0.417000
   5127 H2         35.0281    1.3099   50.3999 HW      1672 WAT      0.417000
   5128 O          28.7334   25.7680   14.8122 OW      1673 WAT     -0.834000
   5129 H1         29.4284   25.2924   14.3571 HW      1673 WAT      0.417000
   5130 H2         29.0995   25.9587   15.6758 HW      1673 WAT      0.417000
   5131 O          29.4737   22.5209   12.8624 OW      1674 WAT     -0.834000
   5132 H1         29.0414   23.2396   12.4011 HW      1674 WAT      0.417000
   5133 H2         30.0899   22.9524   13.4542 HW      1674 WAT      0.417000
   5134 O          36.2344   15.1615    9.6826 OW      1675 WAT     -0.834000
   5135 H1         35.6700   14.5374    9.2264 HW      1675 WAT      0.417000
   5136 H2         36.4483   14.7306   10.5101 HW      1675 WAT      0.417000
   5137 O           6.4283   24.5412   42.6488 OW      1676 WAT     -0.834000
   5138 H1          7.3367   24.8287   42.5572 HW      1676 WAT      0.417000
   5139 H2          6.4923   23.6549   43.0046 HW      1676 WAT      0.417000
   5140 O          28.1559   14.8733   38.6996 OW      1677 WAT     -0.834000
   5141 H1         27.8611   15.7836   38.7259 HW      1677 WAT      0.417000
   5142 H2         29.0035   14.8831   39.1443 HW      1677 WAT      0.417000
   5143 O           0.9786   35.9018   42.1584 OW      1678 WAT     -0.834000
   5144 H1          0.1674   36.2140   41.7573 HW      1678 WAT      0.417000
   5145 H2          1.3683   35.3302   41.4969 HW      1678 WAT      0.417000
   5146 O           2.9260    9.0785   21.7201 OW      1679 WAT     -0.834000
   5147 H1          2.3316    9.8165   21.8550 HW      1679 WAT      0.417000
   5148 H2          3.3044    8.9147   22.5839 HW      1679 WAT      0.417000
   5149 O          29.1122    6.9393   39.0671 OW      1680 WAT     -0.834000
   5150 H1         29.7999    7.5821   39.2403 HW      1680 WAT      0.417000
   5151 H2         28.3004    7.4462   39.0851 HW      1680 WAT      0.417000
   5152 O          19.8062   21.6630   10.0579 OW      1681 WAT     -0.834000
   5153 H1         19.7136   21.3937   10.9717 HW      1681 WAT      0.417000
   5154 H2         19.0764   21.2376    9.6076 HW      1681 WAT      0.417000
   5155 O          27.0770    6.6122   11.0269 OW      1682 WAT     -0.834000
   5156 H1         26.3484    6.9591   10.5122 HW      1682 WAT      0.417000
   5157 H2         27.8530    6.7954   10.4973 HW      1682 WAT      0.417000
   5158 O           1.0951   22.1564   39.6158 OW      1683 WAT     -0.834000
   5159 H1          0.3251   21.8780   40.1116 HW      1683 WAT      0.417000
   5160 H2          1.0260   21.6888   38.7834 HW      1683 WAT      0.417000
   5161 O          29.8424   17.6095   24.7625 OW      1684 WAT     -0.834000
   5162 H1         29.5628   17.8642   25.6418 HW      1684 WAT      0.417000
   5163 H2         30.6506   18.1012   24.6164 HW      1684 WAT      0.417000
   5164 O          33.8366   10.7734   25.4252 OW      1685 WAT     -0.834000
   5165 H1         34.0363   10.7353   24.4898 HW      1685 WAT      0.417000
   5166 H2         34.4440   10.1512   25.8254 HW      1685 WAT      0.417000
   5167 O          13.2683   17.6795   41.4547 OW      1686 WAT     -0.834000
   5168 H1         13.5535   17.1718   42.2143 HW      1686 WAT      0.417000
   5169 H2         12.3782   17.9564   41.6722 HW      1686 WAT      0.417000
   5170 O          28.3162   28.8741   38.9407 OW      1687 WAT     -0.834000
   5171 H1         27.5220   28.9030   38.4071 HW      1687 WAT      0.417000
   5172 H2         28.1871   28.1248   39.5220 HW      1687 WAT      0.417000
   5173 O          19.9581    1.8881   34.3472 OW      1688 WAT     -0.834000
   5174 H1         20.0534    1.1108   34.8975 HW      1688 WAT      0.417000
   5175 H2         20.0231    1.5568   33.4515 HW      1688 WAT      0.417000
   5176 O          24.5914    8.0958    6.2016 OW      1689 WAT     -0.834000
   5177 H1         25.2981    7.7729    5.6425 HW      1689 WAT      0.417000
   5178 H2         23.9865    7.3574    6.2734 HW      1689 WAT      0.417000
   5179 O          17.0717   16.5656   39.8612 OW      1690 WAT     -0.834000
   5180 H1         17.5495   16.8350   39.0767 HW      1690 WAT      0.417000
   5181 H2         16.2317   16.2458   39.5320 HW      1690 WAT      0.417000
   5182 O          20.8482   22.8262   -0.1975 OW      1691 WAT     -0.834000
   5183 H1         21.1125   22.7398    0.7184 HW      1691 WAT      0.417000
   5184 H2         20.0331   23.3270   -0.1654 HW      1691 WAT      0.417000
   5185 O          15.3037   21.2597   17.8605 OW      1692 WAT     -0.834000
   5186 H1         14.7366   20.7500   18.4391 HW      1692 WAT      0.417000
   5187 H2         16.1186   20.7591   17.8220 HW      1692 WAT      0.417000
   5188 O          11.9880   16.6621   11.0917 OW      1693 WAT     -0.834000
   5189 H1         11.7383   16.8682   10.1909 HW      1693 WAT      0.417000
   5190 H2         12.8490   17.0661   11.1999 HW      1693 WAT      0.417000
   5191 O          21.7742   12.0435   17.2290 OW      1694 WAT     -0.834000
   5192 H1         22.3480   12.2303   17.9720 HW      1694 WAT      0.417000
   5193 H2         21.2227   12.8220   17.1507 HW      1694 WAT      0.417000
   5194 O          21.1266   13.1313   50.2475 OW      1695 WAT     -0.834000
   5195 H1         20.6101   13.4940   49.5279 HW      1695 WAT      0.417000
   5196 H2         20.9919   13.7431   50.9712 HW      1695 WAT      0.417000
   5197 O          27.4196    2.9699    0.4818 OW      1696 WAT     -0.834000
   5198 H1         27.2490    2.0357    0.6023 HW      1696 WAT      0.417000
   5199 H2         27.7615    3.2618    1.3269 HW      1696 WAT      0.417000
   5200 O           0.7204    9.1784   46.3187 OW      1697 WAT     -0.834000
   5201 H1         -0.1615    8.9396   46.6041 HW      1697 WAT      0.417000
   5202 H2          1.0822    8.3697   45.9565 HW      1697 WAT      0.417000
   5203 O          20.6787    8.3988    5.6010 OW      1698 WAT     -0.834000
   5204 H1         20.0222    8.4896    4.9104 HW      1698 WAT      0.417000
   5205 H2         20.5061    9.1308    6.1932 HW      1698 WAT      0.417000
   5206 O          18.7744   10.0215   24.6403 OW      1699 WAT     -0.834000
   5207 H1         18.5845   10.5049   23.8363 HW      1699 WAT      0.417000
   5208 H2         19.4642    9.4060   24.3924 HW      1699 WAT      0.417000
   5209 O          35.0135    6.2702   43.5390 OW      1700 WAT     -0.834000
   5210 H1         34.6605    6.3436   44.4257 HW      1700 WAT      0.417000
   5211 H2         35.7038    6.9323   43.5005 HW      1700 WAT      0.417000
   5212 O           2.0553   25.0029   14.2788 OW      1701 WAT     -0.834000
   5213 H1          1.9824   24.3816   15.0034 HW      1701 WAT      0.417000
   5214 H2          2.4999   24.5130   13.5871 HW      1701 WAT      0.417000
   5215 O          11.0941    7.7835   37.2319 OW      1702 WAT     -0.834000
   5216 H1         11.9738    8.1327   37.3745 HW      1702 WAT      0.417000
   5217 H2         10.8542    7.3888   38.0703 HW      1702 WAT      0.417000
   5218 O           7.3130    3.8958    3.0548 OW      1703 WAT     -0.834000
   5219 H1          6.5979    4.1663    3.6308 HW      1703 WAT      0.417000
   5220 H2          7.0052    3.0813    2.6571 HW      1703 WAT      0.417000
   5221 O           6.3463    1.4497   50.9797 OW      1704 WAT     -0.834000
   5222 H1          7.2669    1.6886   50.8714 HW      1704 WAT      0.417000
   5223 H2          6.2713    0.5908   50.5639 HW      1704 WAT      0.417000
   5224 O           5.6199   13.0384    8.2817 OW      1705 WAT     -0.834000
   5225 H1          5.3834   12.1127    8.2233 HW      1705 WAT      0.417000
   5226 H2          4.8369   13.4641    8.6308 HW      1705 WAT      0.417000
   5227 O          10.5483   26.2202   40.4072 OW      1706 WAT     -0.834000
   5228 H1         10.4810   25.8822   39.5141 HW      1706 WAT      0.417000
   5229 H2         10.4644   27.1689   40.3112 HW      1706 WAT      0.417000
   5230 O          23.9551   15.8212   42.9570 OW      1707 WAT     -0.834000
   5231 H1         23.4445   15.0251   43.1042 HW      1707 WAT      0.417000
   5232 H2         24.8513   15.5772   43.1883 HW      1707 WAT      0.417000
   5233 O          30.2835   21.0758   19.4757 OW      1708 WAT     -0.834000
   5234 H1         30.1962   20.8662   18.5458 HW      1708 WAT      0.417000
   5235 H2         29.5992   20.5604   19.9027 HW      1708 WAT      0.417000
   5236 O          29.6204    4.7661    4.6953 OW      1709 WAT     -0.834000
   5237 H1         29.1406    4.1411    5.2388 HW      1709 WAT      0.417000
   5238 H2         30.2001    5.2198    5.3071 HW      1709 WAT      0.417000
   5239 O           3.1153    8.7589   35.9562 OW      1710 WAT     -0.834000
   5240 H1          2.4503    8.0706   35.9677 HW      1710 WAT      0.417000
   5241 H2          3.8928    8.3471   36.3333 HW      1710 WAT      0.417000
   5242 O          32.6952    7.0376   33.8393 OW      1711 WAT     -0.834000
   5243 H1         32.2519    6.5334   33.1569 HW      1711 WAT      0.417000
   5244 H2         33.2672    7.6374   33.3605 HW      1711 WAT      0.417000
   5245 O          31.8482   19.9534   46.8600 OW      1712 WAT     -0.834000
   5246 H1         32.2692   19.1788   46.4872 HW      1712 WAT      0.417000
   5247 H2         31.9001   20.6113   46.1667 HW      1712 WAT      0.417000
   5248 O          18.1833   34.6461   27.4270 OW      1713 WAT     -0.834000
   5249 H1         18.7792   34.2346   26.8010 HW      1713 WAT      0.417000
   5250 H2         17.3318   34.2490   27.2437 HW      1713 WAT      0.417000
   5251 O           7.5429    6.5590   10.0527 OW      1714 WAT     -0.834000
   5252 H1          7.8480    6.9057   10.8912 HW      1714 WAT      0.417000
   5253 H2          6.8094    7.1250    9.8122 HW      1714 WAT      0.417000
   5254 O          25.1058   28.4869   15.2427 OW      1715 WAT     -0.834000
   5255 H1         24.9296   29.2346   15.8139 HW      1715 WAT      0.417000
   5256 H2         26.0570   28.4867   15.1352 HW      1715 WAT      0.417000
   5257 O          21.6677   24.1694   24.6910 OW      1716 WAT     -0.834000
   5258 H1         21.1329   23.8478   25.4168 HW      1716 WAT      0.417000
   5259 H2         22.5648   23.9421   24.9354 HW      1716 WAT      0.417000
   5260 O          22.9979   29.0119   51.6951 OW      1717 WAT     -0.834000
   5261 H1         23.8204   28.5253   51.7486 HW      1717 WAT      0.417000
   5262 H2         22.8785   29.1787   50.7601 HW      1717 WAT      0.417000
   5263 O          26.3804    1.4703   34.2446 OW      1718 WAT     -0.834000
   5264 H1         26.3685    1.0390   33.3902 HW      1718 WAT      0.417000
   5265 H2         25.8589    2.2632   34.1200 HW      1718 WAT      0.417000
   5266 O           6.6610   31.3642   18.9290 OW      1719 WAT     -0.834000
   5267 H1          5.8509   30.8549   18.9040 HW      1719 WAT      0.417000
   5268 H2          6.9875   31.3391   18.0295 HW      1719 WAT      0.417000
   5269 O          13.7924   18.1932   29.1214 OW      1720 WAT     -0.834000
   5270 H1         13.3205   18.8783   28.6479 HW      1720 WAT      0.417000
   5271 H2         14.7025   18.4897   29.1275 HW      1720 WAT      0.417000
   5272 O          15.6620   26.1340   10.5499 OW      1721 WAT     -0.834000
   5273 H1         14.8187   25.8843   10.9277 HW      1721 WAT      0.417000
   5274 H2         15.8190   27.0192   10.8787 HW      1721 WAT      0.417000
   5275 O          26.5042    9.5136   13.8029 OW      1722 WAT     -0.834000
   5276 H1         27.2564    9.7149   14.3597 HW      1722 WAT      0.417000
   5277 H2         26.6632    8.6197   13.4997 HW      1722 WAT      0.417000
   5278 O          11.7974    8.5930   26.2988 OW      1723 WAT     -0.834000
   5279 H1         12.4520    8.7113   26.9871 HW      1723 WAT      0.417000
   5280 H2         11.6618    7.6463   26.2574 HW      1723 WAT      0.417000
   5281 O          21.0933    7.1511   18.3735 OW      1724 WAT     -0.834000
   5282 H1         21.3173    8.0641   18.1932 HW      1724 WAT      0.417000
   5283 H2         21.9373    6.7186   18.5031 HW      1724 WAT      0.417000
   5284 O           3.0618   19.2632   32.7707 OW      1725 WAT     -0.834000
   5285 H1          2.6368   18.5005   32.3784 HW      1725 WAT      0.417000
   5286 H2          3.8663   18.9169   33.1568 HW      1725 WAT      0.417000
   5287 O           2.8103   31.8594   39.3742 OW      1726 WAT     -0.834000
   5288 H1          3.6456   31.9113   38.9097 HW      1726 WAT      0.417000
   5289 H2          2.8436   31.0205   39.8338 HW      1726 WAT      0.417000
   5290 O          34.6749   21.6292   12.5740 OW      1727 WAT     -0.834000
   5291 H1         34.6818   21.1614   13.4091 HW      1727 WAT      0.417000
   5292 H2         35.5990   21.7130   12.3389 HW      1727 WAT      0.417000
   5293 O          15.8643   28.8251   14.2300 OW      1728 WAT     -0.834000
   5294 H1         16.1124   29.5594   14.7917 HW      1728 WAT      0.417000
   5295 H2         16.1135   28.0471   14.7288 HW      1728 WAT      0.417000
   5296 O          21.4537   12.5643   28.2910 OW      1729 WAT     -0.834000
   5297 H1         21.0703   12.2735   27.4636 HW      1729 WAT      0.417000
   5298 H2         22.3360   12.8532   28.0578 HW      1729 WAT      0.417000
   5299 O           7.4197   20.3941    4.2719 OW      1730 WAT     -0.834000
   5300 H1          7.0842   19.8516    4.9856 HW      1730 WAT      0.417000
   5301 H2          7.8245   21.1427    4.7101 HW      1730 WAT      0.417000
   5302 O          24.5167   31.9601   47.4591 OW      1731 WAT     -0.834000
   5303 H1         24.4308   31.0068   47.4700 HW      1731 WAT      0.417000
   5304 H2         24.2533   32.2141   46.5746 HW      1731 WAT      0.417000
   5305 O          15.4567   14.0068    4.4919 OW      1732 WAT     -0.834000
   5306 H1         15.9179   14.6158    5.0687 HW      1732 WAT      0.417000
   5307 H2         15.9400   13.1848    4.5761 HW      1732 WAT      0.417000
   5308 O           4.7790   22.7181   10.5455 OW      1733 WAT     -0.834000
   5309 H1          4.3138   22.9393    9.7387 HW      1733 WAT      0.417000
   5310 H2          5.6633   23.0598   10.4134 HW      1733 WAT      0.417000
   5311 O          11.4847   15.8768   25.4862 OW      1734 WAT     -0.834000
   5312 H1         11.9218   16.7278   25.4533 HW      1734 WAT      0.417000
   5313 H2         12.1013   15.3086   25.9478 HW      1734 WAT      0.417000
   5314 O           7.7843   12.3748    0.3434 OW      1735 WAT     -0.834000
   5315 H1          7.2318   12.8148    0.9895 HW      1735 WAT      0.417000
   5316 H2          8.6634   12.4035    0.7208 HW      1735 WAT      0.417000
   5317 O          29.3118    9.5880    7.5788 OW      1736 WAT     -0.834000
   5318 H1         29.9607    9.0136    7.1723 HW      1736 WAT      0.417000
   5319 H2         28.4686    9.2000    7.3448 HW      1736 WAT      0.417000
   5320 O          10.4606   30.1918   16.9076 OW      1737 WAT     -0.834000
   5321 H1          9.8181   30.3029   16.2068 HW      1737 WAT      0.417000
   5322 H2          9.9361   30.0038   17.6859 HW      1737 WAT      0.417000
   5323 O           8.2005   35.5544   37.8935 OW      1738 WAT     -0.834000
   5324 H1          7.5594   36.2158   37.6335 HW      1738 WAT      0.417000
   5325 H2          8.0425   34.8210   37.2990 HW      1738 WAT      0.417000
   5326 O           9.6769   15.4771    3.9270 OW      1739 WAT     -0.834000
   5327 H1          9.2500   15.4082    4.7809 HW      1739 WAT      0.417000
   5328 H2          8.9774   15.7434    3.3303 HW      1739 WAT      0.417000
   5329 O          34.4515   21.6636   49.1294 OW      1740 WAT     -0.834000
   5330 H1         34.1846   20.7483   49.2143 HW      1740 WAT      0.417000
   5331 H2         33.7017   22.1629   49.4530 HW      1740 WAT      0.417000
   5332 O           7.4969   32.6709   42.6226 OW      1741 WAT     -0.834000
   5333 H1          7.7079   33.0631   41.7753 HW      1741 WAT      0.417000
   5334 H2          6.6875   32.1844   42.4664 HW      1741 WAT      0.417000
   5335 O           3.0624   15.1879   15.1257 OW      1742 WAT     -0.834000
   5336 H1          2.1555   15.4068   15.3400 HW      1742 WAT      0.417000
   5337 H2          3.3830   14.7164   15.8945 HW      1742 WAT      0.417000
   5338 O          34.3092   16.2929   29.9909 OW      1743 WAT     -0.834000
   5339 H1         34.1678   16.8831   29.2506 HW      1743 WAT      0.417000
   5340 H2         34.1113   15.4228   29.6447 HW      1743 WAT      0.417000
   5341 O          22.8907   10.1014   49.3623 OW      1744 WAT     -0.834000
   5342 H1         22.2879    9.3579   49.3618 HW      1744 WAT      0.417000
   5343 H2         22.3585   10.8411   49.6553 HW      1744 WAT      0.417000
   5344 O          18.7841   12.0074   22.8024 OW      1745 WAT     -0.834000
   5345 H1         18.3303   12.4805   22.1049 HW      1745 WAT      0.417000
   5346 H2         19.3406   12.6671   23.2164 HW      1745 WAT      0.417000
   5347 O           0.9483   24.7541    3.6248 OW      1746 WAT     -0.834000
   5348 H1          0.3108   24.6378    4.3294 HW      1746 WAT      0.417000
   5349 H2          0.9996   23.8958    3.2042 HW      1746 WAT      0.417000
   5350 O          29.3087    5.4079   36.6133 OW      1747 WAT     -0.834000
   5351 H1         29.9031    5.5886   35.8851 HW      1747 WAT      0.417000
   5352 H2         29.4240    6.1502   37.2065 HW      1747 WAT      0.417000
   5353 O           9.8431   33.6285   47.2499 OW      1748 WAT     -0.834000
   5354 H1          9.7995   34.5579   47.4747 HW      1748 WAT      0.417000
   5355 H2          9.6512   33.5995   46.3126 HW      1748 WAT      0.417000
   5356 O           1.1971   11.4737    1.0462 OW      1749 WAT     -0.834000
   5357 H1          0.3627   11.1469    0.7096 HW      1749 WAT      0.417000
   5358 H2          1.8045   11.3802    0.3124 HW      1749 WAT      0.417000
   5359 O          26.6059    1.3902    7.7418 OW      1750 WAT     -0.834000
   5360 H1         25.9094    1.7974    8.2568 HW      1750 WAT      0.417000
   5361 H2         27.1291    0.9101    8.3837 HW      1750 WAT      0.417000
   5362 O          23.8916    6.6857    0.9775 OW      1751 WAT     -0.834000
   5363 H1         23.4201    7.1738    1.6525 HW      1751 WAT      0.417000
   5364 H2         23.7891    5.7680    1.2299 HW      1751 WAT      0.417000
   5365 O          12.8548    2.0594   43.8324 OW      1752 WAT     -0.834000
   5366 H1         13.3474    2.6476   44.4048 HW      1752 WAT      0.417000
   5367 H2         12.3705    2.6433   43.2486 HW      1752 WAT      0.417000
   5368 O          19.4239   27.0871   51.1474 OW      1753 WAT     -0.834000
   5369 H1         19.1904   27.4061   52.0192 HW      1753 WAT      0.417000
   5370 H2         19.1808   26.1613   51.1581 HW      1753 WAT      0.417000
   5371 O           6.7966    1.3497   12.3256 OW      1754 WAT     -0.834000
   5372 H1          6.9933    2.1354   11.8155 HW      1754 WAT      0.417000
   5373 H2          7.4226    0.6973   12.0115 HW      1754 WAT      0.417000
   5374 O          12.8587   30.0638   12.0131 OW      1755 WAT     -0.834000
   5375 H1         12.3088   29.3965   12.4236 HW      1755 WAT      0.417000
   5376 H2         12.4041   30.2815   11.1994 HW      1755 WAT      0.417000
   5377 O          25.7566   12.5303    5.5961 OW      1756 WAT     -0.834000
   5378 H1         24.8014   12.5570    5.6514 HW      1756 WAT      0.417000
   5379 H2         25.9364   12.0541    4.7854 HW      1756 WAT      0.417000
   5380 O           8.8024   21.4625   13.6400 OW      1757 WAT     -0.834000
   5381 H1          8.5977   21.4618   14.5751 HW      1757 WAT      0.417000
   5382 H2          8.6009   22.3527   13.3514 HW      1757 WAT      0.417000
   5383 O          19.5741    5.5022    3.6066 OW      1758 WAT     -0.834000
   5384 H1         19.0026    5.8388    4.2968 HW      1758 WAT      0.417000
   5385 H2         20.4186    5.9226    3.7686 HW      1758 WAT      0.417000
   5386 O           2.6319    9.9594    9.4959 OW      1759 WAT     -0.834000
   5387 H1          1.7170   10.0175    9.2206 HW      1759 WAT      0.417000
   5388 H2          2.8559    9.0349    9.3893 HW      1759 WAT      0.417000
   5389 O          31.6256   33.6058   18.8597 OW      1760 WAT     -0.834000
   5390 H1         30.9094   33.1464   18.4214 HW      1760 WAT      0.417000
   5391 H2         31.9156   33.0010   19.5426 HW      1760 WAT      0.417000
   5392 O          35.0688    9.1698   36.3661 OW      1761 WAT     -0.834000
   5393 H1         34.9931    8.2170   36.3148 HW      1761 WAT      0.417000
   5394 H2         34.3690    9.4965   35.8006 HW      1761 WAT      0.417000
   5395 O           6.4869   11.9591   23.4989 OW      1762 WAT     -0.834000
   5396 H1          7.2836   11.8661   22.9765 HW      1762 WAT      0.417000
   5397 H2          6.7259   11.6219   24.3623 HW      1762 WAT      0.417000
   5398 O           4.4740   17.5999    2.1639 OW      1763 WAT     -0.834000
   5399 H1          4.7123   18.5240    2.0896 HW      1763 WAT      0.417000
   5400 H2          4.9591   17.1700    1.4596 HW      1763 WAT      0.417000
   5401 O          19.3021   21.5784   47.0942 OW      1764 WAT     -0.834000
   5402 H1         20.1340   21.1427   47.2797 HW      1764 WAT      0.417000
   5403 H2         19.5498   22.4625   46.8237 HW      1764 WAT      0.417000
   5404 O           1.2487   20.1315   26.1497 OW      1765 WAT     -0.834000
   5405 H1          1.3531   20.5541   27.0022 HW      1765 WAT      0.417000
   5406 H2          0.6924   20.7307   25.6519 HW      1765 WAT      0.417000
   5407 O          16.5146   12.6598   30.7341 OW      1766 WAT     -0.834000
   5408 H1         17.3215   12.6933   30.2202 HW      1766 WAT      0.417000
   5409 H2         16.7911   12.8632   31.6276 HW      1766 WAT      0.417000
   5410 O          15.3211   29.3472   23.8677 OW      1767 WAT     -0.834000
   5411 H1         15.3193   28.3979   23.7451 HW      1767 WAT      0.417000
   5412 H2         14.6074   29.5104   24.4843 HW      1767 WAT      0.417000
   5413 O          31.3122   25.2197   35.3952 OW      1768 WAT     -0.834000
   5414 H1         31.4885   25.8858   34.7308 HW      1768 WAT      0.417000
   5415 H2         30.9363   24.4876   34.9064 HW      1768 WAT      0.417000
   5416 O          28.6652   19.9141    2.0521 OW      1769 WAT     -0.834000
   5417 H1         28.6053   19.0073    2.3527 HW      1769 WAT      0.417000
   5418 H2         27.8992   20.0313    1.4903 HW      1769 WAT      0.417000
   5419 O          14.1513   22.3531    9.5755 OW      1770 WAT     -0.834000
   5420 H1         14.3471   21.9764    8.7177 HW      1770 WAT      0.417000
   5421 H2         13.3848   21.8679    9.8809 HW      1770 WAT      0.417000
   5422 O           9.7855    4.4317   40.4534 OW      1771 WAT     -0.834000
   5423 H1         10.1365    5.2032   40.0088 HW      1771 WAT      0.417000
   5424 H2         10.4122    4.2536   41.1547 HW      1771 WAT      0.417000
   5425 O           8.2322   13.2626    8.1689 OW      1772 WAT     -0.834000
   5426 H1          7.3226   13.5112    8.3336 HW      1772 WAT      0.417000
   5427 H2          8.3130   12.3864    8.5458 HW      1772 WAT      0.417000
   5428 O          26.7269   24.2852    6.0188 OW      1773 WAT     -0.834000
   5429 H1         26.4119   24.7300    6.8056 HW      1773 WAT      0.417000
   5430 H2         27.5314   24.7492    5.7871 HW      1773 WAT      0.417000
   5431 O          36.0021   10.4308   18.4771 OW      1774 WAT     -0.834000
   5432 H1         36.1780   10.6677   19.3877 HW      1774 WAT      0.417000
   5433 H2         35.8656    9.4836   18.4982 HW      1774 WAT      0.417000
   5434 O          14.1149    4.9975   16.1589 OW      1775 WAT     -0.834000
   5435 H1         14.5962    5.7198   16.5626 HW      1775 WAT      0.417000
   5436 H2         14.5915    4.2122   16.4279 HW      1775 WAT      0.417000
   5437 O          25.1696   27.7772   31.0060 OW      1776 WAT     -0.834000
   5438 H1         25.7683   28.0901   31.6842 HW      1776 WAT      0.417000
   5439 H2         24.7054   28.5624   30.7156 HW      1776 WAT      0.417000
   5440 O          15.7304   26.7472   22.7905 OW      1777 WAT     -0.834000
   5441 H1         16.5145   27.1820   22.4552 HW      1777 WAT      0.417000
   5442 H2         15.9912   25.8325   22.8978 HW      1777 WAT      0.417000
   5443 O          19.5202    5.3708    6.5317 OW      1778 WAT     -0.834000
   5444 H1         19.9787    5.7455    7.2838 HW      1778 WAT      0.417000
   5445 H2         18.8543    6.0213    6.3088 HW      1778 WAT      0.417000
   5446 O          27.2528   35.0318    6.4303 OW      1779 WAT     -0.834000
   5447 H1         27.6165   34.1468    6.4572 HW      1779 WAT      0.417000
   5448 H2         28.0101   35.5974    6.2792 HW      1779 WAT      0.417000
   5449 O          23.9592    3.7339    1.3831 OW      1780 WAT     -0.834000
   5450 H1         24.2876    3.3169    0.5865 HW      1780 WAT      0.417000
   5451 H2         24.5812    3.4749    2.0629 HW      1780 WAT      0.417000
   5452 O           5.8533   23.3950   37.9768 OW      1781 WAT     -0.834000
   5453 H1          4.9255   23.1616   37.9474 HW      1781 WAT      0.417000
   5454 H2          5.8896   24.1604   38.5505 HW      1781 WAT      0.417000
   5455 O          22.2381   25.8849    8.5735 OW      1782 WAT     -0.834000
   5456 H1         21.6731   25.2921    9.0692 HW      1782 WAT      0.417000
   5457 H2         22.4300   26.5980    9.1826 HW      1782 WAT      0.417000
   5458 O           2.7861   12.7304    9.7868 OW      1783 WAT     -0.834000
   5459 H1          2.7768   11.7733    9.7991 HW      1783 WAT      0.417000
   5460 H2          2.0447   12.9842   10.3365 HW      1783 WAT      0.417000
   5461 O          15.3849   28.4738    3.1182 OW      1784 WAT     -0.834000
   5462 H1         14.9476   28.4281    2.2680 HW      1784 WAT      0.417000
   5463 H2         15.6917   29.3783    3.1815 HW      1784 WAT      0.417000
   5464 O          24.7851   16.8751   28.9638 OW      1785 WAT     -0.834000
   5465 H1         25.3106   17.0439   28.1817 HW      1785 WAT      0.417000
   5466 H2         25.1255   16.0490   29.3073 HW      1785 WAT      0.417000
   5467 O           4.0124   26.9443   49.1230 OW      1786 WAT     -0.834000
   5468 H1          3.6611   27.8341   49.0909 HW      1786 WAT      0.417000
   5469 H2          4.0622   26.6733   48.2063 HW      1786 WAT      0.417000
   5470 O          29.5663   21.0913   29.8528 OW      1787 WAT     -0.834000
   5471 H1         29.0113   21.8712   29.8552 HW      1787 WAT      0.417000
   5472 H2         28.9746   20.3756   30.0849 HW      1787 WAT      0.417000
   5473 O          19.9007   32.6487   37.7200 OW      1788 WAT     -0.834000
   5474 H1         19.6068   31.9936   37.0870 HW      1788 WAT      0.417000
   5475 H2         19.1466   33.2273   37.8335 HW      1788 WAT      0.417000
   5476 O           1.8694   17.0661    1.4208 OW      1789 WAT     -0.834000
   5477 H1          2.0143   17.8526    1.9468 HW      1789 WAT      0.417000
   5478 H2          2.5629   16.4650    1.6928 HW      1789 WAT      0.417000
   5479 O          14.0853   36.1410   14.7785 OW      1790 WAT     -0.834000
   5480 H1         15.0193   36.1779   14.9847 HW      1790 WAT      0.417000
   5481 H2         13.9926   36.6766   13.9906 HW      1790 WAT      0.417000
   5482 O          26.8231   34.7601   25.6857 OW      1791 WAT     -0.834000
   5483 H1         25.9210   35.0187   25.8741 HW      1791 WAT      0.417000
   5484 H2         26.7393   34.0139   25.0921 HW      1791 WAT      0.417000
   5485 O          32.8831    4.7029   25.0000 OW      1792 WAT     -0.834000
   5486 H1         33.0439    3.7741   25.1666 HW      1792 WAT      0.417000
   5487 H2         31.9305    4.7739   24.9387 HW      1792 WAT      0.417000
   5488 O          34.8767   19.2866   44.0194 OW      1793 WAT     -0.834000
   5489 H1         35.7363   18.8950   43.8652 HW      1793 WAT      0.417000
   5490 H2         35.0432   20.2290   44.0413 HW      1793 WAT      0.417000
   5491 O          36.4839   18.0101    9.1721 OW      1794 WAT     -0.834000
   5492 H1         36.1995   17.0997    9.2528 HW      1794 WAT      0.417000
   5493 H2         36.4063   18.3647   10.0578 HW      1794 WAT      0.417000
   5494 O          23.9264   30.7097   22.7899 OW      1795 WAT     -0.834000
   5495 H1         23.3519   30.6766   22.0250 HW      1795 WAT      0.417000
   5496 H2         23.3500   30.9614   23.5115 HW      1795 WAT      0.417000
   5497 O          21.5459   24.9722   20.8417 OW      1796 WAT     -0.834000
   5498 H1         22.4383   24.7510   20.5754 HW      1796 WAT      0.417000
   5499 H2         21.1624   24.1376   21.1111 HW      1796 WAT      0.417000
   5500 O          26.5725   32.5347    7.7552 OW      1797 WAT     -0.834000
   5501 H1         25.9869   33.2699    7.5740 HW      1797 WAT      0.417000
   5502 H2         26.5613   32.0157    6.9510 HW      1797 WAT      0.417000
   5503 O           3.5000   34.4345   45.8642 OW      1798 WAT     -0.834000
   5504 H1          3.7803   35.3473   45.7969 HW      1798 WAT      0.417000
   5505 H2          2.7121   34.3854   45.3228 HW      1798 WAT      0.417000
   5506 O           7.6418   19.3422   43.4013 OW      1799 WAT     -0.834000
   5507 H1          7.1135   19.0997   42.6408 HW      1799 WAT      0.417000
   5508 H2          7.1246   20.0121   43.8485 HW      1799 WAT      0.417000
   5509 O          15.1760    6.4926   33.3692 OW      1800 WAT     -0.834000
   5510 H1         15.9291    7.0830   33.3479 HW      1800 WAT      0.417000
   5511 H2         14.4793    7.0076   33.7762 HW      1800 WAT      0.417000
   5512 O          22.8889    1.7087    7.7468 OW      1801 WAT     -0.834000
   5513 H1         23.2759    1.1499    7.0729 HW      1801 WAT      0.417000
   5514 H2         22.1137    2.0849    7.3299 HW      1801 WAT      0.417000
   5515 O          24.1692    6.4470   19.5194 OW      1802 WAT     -0.834000
   5516 H1         24.0410    5.4997   19.5693 HW      1802 WAT      0.417000
   5517 H2         24.8718    6.5602   18.8792 HW      1802 WAT      0.417000
   5518 O          27.1556   27.5531   45.0548 OW      1803 WAT     -0.834000
   5519 H1         26.4408   26.9168   45.0742 HW      1803 WAT      0.417000
   5520 H2         27.9337   27.0331   44.8540 HW      1803 WAT      0.417000
   5521 O           0.1638   18.0749   50.4976 OW      1804 WAT     -0.834000
   5522 H1          0.1674   17.8394   51.4253 HW      1804 WAT      0.417000
   5523 H2          1.0676   18.3293   50.3115 HW      1804 WAT      0.417000
   5524 O          23.4460   10.0099    4.5304 OW      1805 WAT     -0.834000
   5525 H1         24.3192    9.9786    4.1397 HW      1805 WAT      0.417000
   5526 H2         23.4397    9.2897    5.1609 HW      1805 WAT      0.417000
   5527 O           3.1108   33.9413    3.7646 OW      1806 WAT     -0.834000
   5528 H1          3.7827   34.6013    3.5938 HW      1806 WAT      0.417000
   5529 H2          2.3701   34.2071    3.2196 HW      1806 WAT      0.417000
   5530 O           9.6765    6.8408    2.5265 OW      1807 WAT     -0.834000
   5531 H1          9.1174    6.2792    3.0634 HW      1807 WAT      0.417000
   5532 H2          9.5749    7.7134    2.9065 HW      1807 WAT      0.417000
   5533 O          26.0237   19.1293   25.5994 OW      1808 WAT     -0.834000
   5534 H1         25.5142   19.8982   25.8549 HW      1808 WAT      0.417000
   5535 H2         26.6239   19.4521   24.9273 HW      1808 WAT      0.417000
   5536 O          18.4383   24.4643   36.9446 OW      1809 WAT     -0.834000
   5537 H1         17.6782   23.9764   37.2614 HW      1809 WAT      0.417000
   5538 H2         19.0737   23.7894   36.7060 HW      1809 WAT      0.417000
   5539 O           6.4906   34.3351   19.4437 OW      1810 WAT     -0.834000
   5540 H1          6.9592   34.8988   20.0592 HW      1810 WAT      0.417000
   5541 H2          7.1457   33.7001   19.1541 HW      1810 WAT      0.417000
   5542 O           8.9411    2.8695   35.1318 OW      1811 WAT     -0.834000
   5543 H1          9.6577    3.3907   35.4939 HW      1811 WAT      0.417000
   5544 H2          8.7286    3.2977   34.3026 HW      1811 WAT      0.417000
   5545 O          15.7179   26.3856   46.0238 OW      1812 WAT     -0.834000
   5546 H1         14.8829   26.7998   46.2418 HW      1812 WAT      0.417000
   5547 H2         15.7066   25.5571   46.5030 HW      1812 WAT      0.417000
   5548 O          25.8254    6.8613   32.6486 OW      1813 WAT     -0.834000
   5549 H1         24.9513    7.0429   32.9937 HW      1813 WAT      0.417000
   5550 H2         26.4179    7.0883   33.3653 HW      1813 WAT      0.417000
   5551 O          35.7746    3.6738   21.4324 OW      1814 WAT     -0.834000
   5552 H1         36.6563    3.4205   21.7054 HW      1814 WAT      0.417000
   5553 H2         35.2258    2.9270   21.6719 HW      1814 WAT      0.417000
   5554 O          27.5595   23.1694   29.7603 OW      1815 WAT     -0.834000
   5555 H1         27.0714   23.2051   28.9377 HW      1815 WAT      0.417000
   5556 H2         27.6406   24.0840   30.0306 HW      1815 WAT      0.417000
   5557 O          35.7881    8.0139    4.4301 OW      1816 WAT     -0.834000
   5558 H1         36.4117    8.1480    5.1438 HW      1816 WAT      0.417000
   5559 H2         36.3330    7.9401    3.6466 HW      1816 WAT      0.417000
   5560 O           6.0978   25.1928   39.8311 OW      1817 WAT     -0.834000
   5561 H1          6.2443   26.0987   40.1034 HW      1817 WAT      0.417000
   5562 H2          6.1023   24.6935   40.6477 HW      1817 WAT      0.417000
   5563 O          14.9311   26.7757    5.5784 OW      1818 WAT     -0.834000
   5564 H1         14.8858   25.8290    5.4445 HW      1818 WAT      0.417000
   5565 H2         14.9827   27.1403    4.6948 HW      1818 WAT      0.417000
   5566 O          14.4577   30.5808   27.0583 OW      1819 WAT     -0.834000
   5567 H1         15.2141   31.1108   26.8069 HW      1819 WAT      0.417000
   5568 H2         14.8314   29.7400   27.3220 HW      1819 WAT      0.417000
   5569 O          25.0125    3.8987   23.0633 OW      1820 WAT     -0.834000
   5570 H1         25.8827    3.5490   23.2549 HW      1820 WAT      0.417000
   5571 H2         24.7867    4.4160   23.8364 HW      1820 WAT      0.417000
   5572 O          11.4759    7.3571   29.4314 OW      1821 WAT     -0.834000
   5573 H1         12.2598    7.8710   29.2375 HW      1821 WAT      0.417000
   5574 H2         11.5198    7.1998   30.3745 HW      1821 WAT      0.417000
   5575 O           7.0205   17.6284   16.2004 OW      1822 WAT     -0.834000
   5576 H1          7.1511   16.6819   16.1422 HW      1822 WAT      0.417000
   5577 H2          7.6907   17.9253   16.8159 HW      1822 WAT      0.417000
   5578 O           9.5971   18.6688   37.6524 OW      1823 WAT     -0.834000
   5579 H1         10.2174   19.3550   37.4062 HW      1823 WAT      0.417000
   5580 H2          8.9862   19.1011   38.2492 HW      1823 WAT      0.417000
   5581 O          19.9093    1.3218   21.5377 OW      1824 WAT     -0.834000
   5582 H1         19.2262    1.7711   22.0355 HW      1824 WAT      0.417000
   5583 H2         20.2490    1.9889   20.9412 HW      1824 WAT      0.417000
   5584 O          32.5502    7.3652   10.9250 OW      1825 WAT     -0.834000
   5585 H1         33.0500    6.6340   11.2880 HW      1825 WAT      0.417000
   5586 H2         31.7927    6.9543   10.5086 HW      1825 WAT      0.417000
   5587 O          21.6064   22.2572   22.0196 OW      1826 WAT     -0.834000
   5588 H1         22.2547   22.5492   22.6603 HW      1826 WAT      0.417000
   5589 H2         20.8343   22.0400   22.5421 HW      1826 WAT      0.417000
   5590 O          18.6257   33.0852   17.6990 OW      1827 WAT     -0.834000
   5591 H1         18.1388   33.7845   18.1351 HW      1827 WAT      0.417000
   5592 H2         18.1575   32.2843   17.9350 HW      1827 WAT      0.417000
   5593 O          17.8499   34.6324   46.4211 OW      1828 WAT     -0.834000
   5594 H1         17.0420   35.1359   46.3212 HW      1828 WAT      0.417000
   5595 H2         18.0308   34.2934   45.5445 HW      1828 WAT      0.417000
   5596 O          21.7431   21.8352    7.6599 OW      1829 WAT     -0.834000
   5597 H1         21.0662   21.6926    8.3214 HW      1829 WAT      0.417000
   5598 H2         22.5559   21.5644    8.0867 HW      1829 WAT      0.417000
   5599 O          12.1514    0.5045   30.9578 OW      1830 WAT     -0.834000
   5600 H1         12.7594    1.1615   31.2966 HW      1830 WAT      0.417000
   5601 H2         11.6975    0.9458   30.2398 HW      1830 WAT      0.417000
   5602 O          17.4122   17.8820   15.1337 OW      1831 WAT     -0.834000
   5603 H1         17.9665   17.9351   14.3551 HW      1831 WAT      0.417000
   5604 H2         16.5484   18.1636   14.8323 HW      1831 WAT      0.417000
   5605 O          17.3391   20.3530    9.8764 OW      1832 WAT     -0.834000
   5606 H1         17.1050   21.0052   10.5367 HW      1832 WAT      0.417000
   5607 H2         16.5170   20.1648    9.4236 HW      1832 WAT      0.417000
   5608 O          29.0876    8.3427   30.7829 OW      1833 WAT     -0.834000
   5609 H1         30.0038    8.1235   30.9523 HW      1833 WAT      0.417000
   5610 H2         28.7338    8.5738   31.6417 HW      1833 WAT      0.417000
   5611 O          26.4582   10.4484   19.3608 OW      1834 WAT     -0.834000
   5612 H1         26.0094   11.2406   19.6562 HW      1834 WAT      0.417000
   5613 H2         25.9649    9.7311   19.7587 HW      1834 WAT      0.417000
   5614 O          10.2830   28.1935   46.2551 OW      1835 WAT     -0.834000
   5615 H1         10.4420   28.7911   46.9857 HW      1835 WAT      0.417000
   5616 H2          9.9086   27.4121   46.6620 HW      1835 WAT      0.417000
   5617 O          10.1605   13.4369   45.3818 OW      1836 WAT     -0.834000
   5618 H1          9.5522   14.1745   45.4279 HW      1836 WAT      0.417000
   5619 H2         10.2500   13.2584   44.4456 HW      1836 WAT      0.417000
   5620 O          18.4596   24.3575   50.9918 OW      1837 WAT     -0.834000
   5621 H1         17.6887   24.8791   51.2155 HW      1837 WAT      0.417000
   5622 H2         18.1067   23.5034   50.7424 HW      1837 WAT      0.417000
   5623 O          10.2215   27.7007   22.3289 OW      1838 WAT     -0.834000
   5624 H1         11.1711   27.6293   22.4260 HW      1838 WAT      0.417000
   5625 H2         10.0983   28.3966   21.6833 HW      1838 WAT      0.417000
   5626 O          31.0317    5.1759   20.8991 OW      1839 WAT     -0.834000
   5627 H1         31.6617    4.8691   20.2470 HW      1839 WAT      0.417000
   5628 H2         30.3795    4.4771   20.9494 HW      1839 WAT      0.417000
   5629 O           7.6925   18.4939   34.6367 OW      1840 WAT     -0.834000
   5630 H1          8.5593   18.6919   34.2821 HW      1840 WAT      0.417000
   5631 H2          7.8685   18.0075   35.4421 HW      1840 WAT      0.417000
   5632 O          32.7699   22.6549    5.8910 OW      1841 WAT     -0.834000
   5633 H1         32.9648   23.3326    5.2437 HW      1841 WAT      0.417000
   5634 H2         32.9111   21.8309    5.4250 HW      1841 WAT      0.417000
   5635 O          26.3517   29.9848   35.7215 OW      1842 WAT     -0.834000
   5636 H1         26.0435   29.1959   36.1675 HW      1842 WAT      0.417000
   5637 H2         27.3058   29.9358   35.7800 HW      1842 WAT      0.417000
   5638 O          36.1086   20.4864    8.2735 OW      1843 WAT     -0.834000
   5639 H1         36.7096   20.4486    7.5295 HW      1843 WAT      0.417000
   5640 H2         36.1511   19.6119    8.6605 HW      1843 WAT      0.417000
   5641 O          31.4521    8.3166   39.6528 OW      1844 WAT     -0.834000
   5642 H1         31.6366    8.0511   40.5538 HW      1844 WAT      0.417000
   5643 H2         31.9618    7.7103   39.1154 HW      1844 WAT      0.417000
   5644 O           4.2378   32.7932   33.6018 OW      1845 WAT     -0.834000
   5645 H1          5.0234   33.3388   33.5656 HW      1845 WAT      0.417000
   5646 H2          4.0380   32.5998   32.6859 HW      1845 WAT      0.417000
   5647 O          27.4605   19.3668   49.7405 OW      1846 WAT     -0.834000
   5648 H1         28.0650   18.6432   49.9051 HW      1846 WAT      0.417000
   5649 H2         26.8430   19.3339   50.4711 HW      1846 WAT      0.417000
   5650 O          31.8143    9.7597   12.7848 OW      1847 WAT     -0.834000
   5651 H1         31.7166    8.9815   12.2360 HW      1847 WAT      0.417000
   5652 H2         32.1132    9.4215   13.6289 HW      1847 WAT      0.417000
   5653 O           3.7274   18.8396   36.6112 OW      1848 WAT     -0.834000
   5654 H1          3.5073   19.6686   36.1862 HW      1848 WAT      0.417000
   5655 H2          4.6010   18.6268   36.2829 HW      1848 WAT      0.417000
   5656 O          13.0705   10.1593   39.2089 OW      1849 WAT     -0.834000
   5657 H1         13.7143   10.2591   39.9103 HW      1849 WAT      0.417000
   5658 H2         12.2276   10.3209   39.6326 HW      1849 WAT      0.417000
   5659 O          21.9214   33.9434   35.1303 OW      1850 WAT     -0.834000
   5660 H1         21.1057   33.6609   34.7167 HW      1850 WAT      0.417000
   5661 H2         21.7842   33.7840   36.0641 HW      1850 WAT      0.417000
   5662 O           6.0817   14.7079    1.6344 OW      1851 WAT     -0.834000
   5663 H1          5.1807   14.8273    1.3342 HW      1851 WAT      0.417000
   5664 H2          6.0049   14.5875    2.5809 HW      1851 WAT      0.417000
   5665 O          14.1293   24.2173   29.1191 OW      1852 WAT     -0.834000
   5666 H1         14.2421   24.7141   28.3086 HW      1852 WAT      0.417000
   5667 H2         15.0181   24.1034   29.4558 HW      1852 WAT      0.417000
   5668 O          18.5126   16.7689   45.1094 OW      1853 WAT     -0.834000
   5669 H1         19.3527   16.8057   44.6521 HW      1853 WAT      0.417000
   5670 H2         18.5622   17.4708   45.7583 HW      1853 WAT      0.417000
   5671 O          21.0056   28.0914   24.0176 OW      1854 WAT     -0.834000
   5672 H1         21.3045   27.1883   24.1243 HW      1854 WAT      0.417000
   5673 H2         20.4083   28.0592   23.2703 HW      1854 WAT      0.417000
   5674 O          19.0282    5.3178   25.3855 OW      1855 WAT     -0.834000
   5675 H1         18.4729    5.8180   25.9836 HW      1855 WAT      0.417000
   5676 H2         18.6529    5.4783   24.5196 HW      1855 WAT      0.417000
   5677 O          24.6794    9.0457   20.7304 OW      1856 WAT     -0.834000
   5678 H1         24.1017    8.3094   20.5300 HW      1856 WAT      0.417000
   5679 H2         24.8972    8.9344   21.6559 HW      1856 WAT      0.417000
   5680 O           3.7953   33.7048   20.2422 OW      1857 WAT     -0.834000
   5681 H1          3.5422   34.3335   20.9182 HW      1857 WAT      0.417000
   5682 H2          4.6158   34.0495   19.8898 HW      1857 WAT      0.417000
   5683 O           8.6164    2.3612   29.2063 OW      1858 WAT     -0.834000
   5684 H1          8.1369    2.4216   30.0325 HW      1858 WAT      0.417000
   5685 H2          8.0319    2.7582   28.5606 HW      1858 WAT      0.417000
   5686 O          31.6833    0.4565    8.9834 OW      1859 WAT     -0.834000
   5687 H1         31.3195   -0.1232    9.6527 HW      1859 WAT      0.417000
   5688 H2         32.6308    0.4008    9.1076 HW      1859 WAT      0.417000
   5689 O          14.2897   32.0651   47.2474 OW      1860 WAT     -0.834000
   5690 H1         14.9214   31.7732   46.5902 HW      1860 WAT      0.417000
   5691 H2         13.7124   32.6648   46.7749 HW      1860 WAT      0.417000
   5692 O          14.4572    5.6470   26.9605 OW      1861 WAT     -0.834000
   5693 H1         14.4956    4.7584   27.3143 HW      1861 WAT      0.417000
   5694 H2         15.3721    5.8846   26.8098 HW      1861 WAT      0.417000
   5695 O          30.4405   27.7791   46.6985 OW      1862 WAT     -0.834000
   5696 H1         30.2369   27.0878   46.0685 HW      1862 WAT      0.417000
   5697 H2         29.7090   27.7638   47.3157 HW      1862 WAT      0.417000
   5698 O           8.2742   32.0459   28.7347 OW      1863 WAT     -0.834000
   5699 H1          8.4053   31.1353   28.9990 HW      1863 WAT      0.417000
   5700 H2          8.8138   32.5517   29.3423 HW      1863 WAT      0.417000
   5701 O          36.2970   14.5663   50.2432 OW      1864 WAT     -0.834000
   5702 H1         36.1553   14.8691   51.1401 HW      1864 WAT      0.417000
   5703 H2         35.6755   13.8468   50.1324 HW      1864 WAT      0.417000
   5704 O           2.9069    1.5018   23.9076 OW      1865 WAT     -0.834000
   5705 H1          2.8583    1.7870   24.8201 HW      1865 WAT      0.417000
   5706 H2          2.6334    2.2675   23.4025 HW      1865 WAT      0.417000
   5707 O           0.5117   17.5583   27.2330 OW      1866 WAT     -0.834000
   5708 H1          0.9709   18.3346   26.9126 HW      1866 WAT      0.417000
   5709 H2         -0.4100   17.8158   27.2516 HW      1866 WAT      0.417000
   5710 O          29.8941   29.5097   14.9220 OW      1867 WAT     -0.834000
   5711 H1         29.6008   28.6003   14.8665 HW      1867 WAT      0.417000
   5712 H2         29.4185   29.8694   15.6708 HW      1867 WAT      0.417000
   5713 O          31.6320    7.5389   23.4405 OW      1868 WAT     -0.834000
   5714 H1         32.5212    7.6143   23.0942 HW      1868 WAT      0.417000
   5715 H2         31.0691    7.8159   22.7176 HW      1868 WAT      0.417000
   5716 O           6.7598   25.6331   21.2404 OW      1869 WAT     -0.834000
   5717 H1          7.4978   25.2124   21.6815 HW      1869 WAT      0.417000
   5718 H2          6.1556   25.8595   21.9475 HW      1869 WAT      0.417000
   5719 O          11.5875   22.7225    5.9115 OW      1870 WAT     -0.834000
   5720 H1         11.4359   22.2540    6.7323 HW      1870 WAT      0.417000
   5721 H2         11.4554   22.0624    5.2310 HW      1870 WAT      0.417000
   5722 O          18.7232    2.9005    4.3327 OW      1871 WAT     -0.834000
   5723 H1         19.0739    3.7382    4.0302 HW      1871 WAT      0.417000
   5724 H2         17.9201    2.7800    3.8259 HW      1871 WAT      0.417000
   5725 O          25.9514   22.0199   26.3210 OW      1872 WAT     -0.834000
   5726 H1         26.8304   22.3975   26.2895 HW      1872 WAT      0.417000
   5727 H2         25.8789   21.6551   27.2029 HW      1872 WAT      0.417000
   5728 O          35.8176    3.4032   43.2520 OW      1873 WAT     -0.834000
   5729 H1         34.9141    3.2491   43.5280 HW      1873 WAT      0.417000
   5730 H2         35.9188    4.3545   43.2838 HW      1873 WAT      0.417000
   5731 O          10.0770   15.8459   43.4479 OW      1874 WAT     -0.834000
   5732 H1         10.5050   15.0139   43.2455 HW      1874 WAT      0.417000
   5733 H2          9.2580   15.5961   43.8757 HW      1874 WAT      0.417000
   5734 O          34.5663   32.8253   41.1459 OW      1875 WAT     -0.834000
   5735 H1         34.8587   32.6728   42.0445 HW      1875 WAT      0.417000
   5736 H2         34.0304   33.6166   41.1995 HW      1875 WAT      0.417000
   5737 O          23.9446   15.3702    3.7036 OW      1876 WAT     -0.834000
   5738 H1         24.8878   15.3271    3.8610 HW      1876 WAT      0.417000
   5739 H2         23.7939   14.7587    2.9828 HW      1876 WAT      0.417000
   5740 O          19.8396   19.5178   16.3349 OW      1877 WAT     -0.834000
   5741 H1         19.2616   18.8527   15.9610 HW      1877 WAT      0.417000
   5742 H2         20.6531   19.0498   16.5230 HW      1877 WAT      0.417000
   5743 O          15.7015   24.4744   20.1231 OW      1878 WAT     -0.834000
   5744 H1         15.4462   23.5545   20.0530 HW      1878 WAT      0.417000
   5745 H2         15.8544   24.6099   21.0582 HW      1878 WAT      0.417000
   5746 O          28.3795   13.9826   14.9117 OW      1879 WAT     -0.834000
   5747 H1         28.5036   14.8955   14.6521 HW      1879 WAT      0.417000
   5748 H2         27.4602   13.9308   15.1733 HW      1879 WAT      0.417000
   5749 O           2.5222   16.2724   35.3299 OW      1880 WAT     -0.834000
   5750 H1          2.9231   17.0727   35.6690 HW      1880 WAT      0.417000
   5751 H2          3.2486   15.7887   34.9366 HW      1880 WAT      0.417000
   5752 O          34.4489   19.5548   22.1363 OW      1881 WAT     -0.834000
   5753 H1         34.0374   18.6906   22.1360 HW      1881 WAT      0.417000
   5754 H2         35.3384   19.3965   22.4524 HW      1881 WAT      0.417000
   5755 O           9.9505   11.6296   30.3772 OW      1882 WAT     -0.834000
   5756 H1          9.3232   11.9839   31.0075 HW      1882 WAT      0.417000
   5757 H2          9.6476   11.9546   29.5294 HW      1882 WAT      0.417000
   5758 O          31.4946   14.7370   31.7963 OW      1883 WAT     -0.834000
   5759 H1         30.9710   14.1344   32.3245 HW      1883 WAT      0.417000
   5760 H2         31.3152   15.6002   32.1691 HW      1883 WAT      0.417000
   5761 O           0.2751   34.0235   24.1891 OW      1884 WAT     -0.834000
   5762 H1          0.2125   34.9766   24.1254 HW      1884 WAT      0.417000
   5763 H2          0.1566   33.7152   23.2907 HW      1884 WAT      0.417000
   5764 O          30.2915   21.4627   24.0248 OW      1885 WAT     -0.834000
   5765 H1         30.8208   20.6873   24.2114 HW      1885 WAT      0.417000
   5766 H2         30.9309   22.1616   23.8869 HW      1885 WAT      0.417000
   5767 O          34.0459   19.9549   38.5200 OW      1886 WAT     -0.834000
   5768 H1         34.0677   19.6528   37.6120 HW      1886 WAT      0.417000
   5769 H2         33.2745   19.5302   38.8953 HW      1886 WAT      0.417000
   5770 O          10.8934   17.0195   35.1592 OW      1887 WAT     -0.834000
   5771 H1         11.4415   16.2468   35.2953 HW      1887 WAT      0.417000
   5772 H2         10.2405   16.9762   35.8578 HW      1887 WAT      0.417000
   5773 O          30.5885   22.6084   34.4627 OW      1888 WAT     -0.834000
   5774 H1         31.5112   22.5874   34.2090 HW      1888 WAT      0.417000
   5775 H2         30.1730   21.9467   33.9098 HW      1888 WAT      0.417000
   5776 O          16.6336    4.1063   17.5037 OW      1889 WAT     -0.834000
   5777 H1         17.4525    3.6789   17.7543 HW      1889 WAT      0.417000
   5778 H2         15.9489    3.5270   17.8381 HW      1889 WAT      0.417000
   5779 O          20.7479   22.2325   28.6674 OW      1890 WAT     -0.834000
   5780 H1         21.0168   22.9143   29.2832 HW      1890 WAT      0.417000
   5781 H2         20.5400   22.7058   27.8618 HW      1890 WAT      0.417000
   5782 O          14.7835   19.4213   43.6630 OW      1891 WAT     -0.834000
   5783 H1         15.0484   20.1841   44.1770 HW      1891 WAT      0.417000
   5784 H2         14.5276   19.7818   42.8140 HW      1891 WAT      0.417000
   5785 O          21.4321    7.3651   15.4018 OW      1892 WAT     -0.834000
   5786 H1         20.8151    7.3486   14.6702 HW      1892 WAT      0.417000
   5787 H2         20.9088    7.6522   16.1501 HW      1892 WAT      0.417000
   5788 O          12.2948   20.3972   10.4717 OW      1893 WAT     -0.834000
   5789 H1         11.6836   19.9713   11.0728 HW      1893 WAT      0.417000
   5790 H2         12.2001   19.9136    9.6512 HW      1893 WAT      0.417000
   5791 O          22.7899    1.1191   12.2272 OW      1894 WAT     -0.834000
   5792 H1         22.3806    0.9297   11.3829 HW      1894 WAT      0.417000
   5793 H2         22.0843    1.0115   12.8650 HW      1894 WAT      0.417000
   5794 O          27.5908    4.7632   19.1300 OW      1895 WAT     -0.834000
   5795 H1         27.0152    5.4816   18.8677 HW      1895 WAT      0.417000
   5796 H2         27.0299    4.1823   19.6439 HW      1895 WAT      0.417000
   5797 O          36.2412    3.2253    3.7859 OW      1896 WAT     -0.834000
   5798 H1         36.6486    3.8044    4.4299 HW      1896 WAT      0.417000
   5799 H2         36.3797    2.3445    4.1342 HW      1896 WAT      0.417000
   5800 O           6.8197    8.5675   32.2474 OW      1897 WAT     -0.834000
   5801 H1          6.9180    8.8735   31.3458 HW      1897 WAT      0.417000
   5802 H2          5.8732    8.5192   32.3821 HW      1897 WAT      0.417000
   5803 O          20.1565   20.7469   12.5582 OW      1898 WAT     -0.834000
   5804 H1         20.4820   21.0594   13.4024 HW      1898 WAT      0.417000
   5805 H2         19.8865   19.8439   12.7251 HW      1898 WAT      0.417000
   5806 O          30.6487   19.3851    9.1703 OW      1899 WAT     -0.834000
   5807 H1         31.1602   19.8864    9.8053 HW      1899 WAT      0.417000
   5808 H2         29.8859   19.9346    8.9899 HW      1899 WAT      0.417000
   5809 O          13.9367   14.1395   23.8637 OW      1900 WAT     -0.834000
   5810 H1         13.0126   13.9362   23.7190 HW      1900 WAT      0.417000
   5811 H2         14.2040   14.6131   23.0760 HW      1900 WAT      0.417000
   5812 O          23.1290   29.5949   10.6988 OW      1901 WAT     -0.834000
   5813 H1         22.2929   29.8220   10.2919 HW      1901 WAT      0.417000
   5814 H2         22.9085   29.4076   11.6112 HW      1901 WAT      0.417000
   5815 O           3.5006    3.5081   15.3612 OW      1902 WAT     -0.834000
   5816 H1          2.9261    4.2676   15.2648 HW      1902 WAT      0.417000
   5817 H2          3.5276    3.1160   14.4884 HW      1902 WAT      0.417000
   5818 O          26.8041   24.2936   48.7364 OW      1903 WAT     -0.834000
   5819 H1         26.2799   23.8603   48.0629 HW      1903 WAT      0.417000
   5820 H2         26.9753   23.6095   49.3837 HW      1903 WAT      0.417000
   5821 O          22.0767    2.5886    4.3768 OW      1904 WAT     -0.834000
   5822 H1         22.0413    3.0186    5.2313 HW      1904 WAT      0.417000
   5823 H2         23.0112    2.5209    4.1812 HW      1904 WAT      0.417000
   5824 O          22.1827    9.6979   43.8355 OW      1905 WAT     -0.834000
   5825 H1         23.1181    9.8313   43.6821 HW      1905 WAT      0.417000
   5826 H2         21.7573   10.4064   43.3526 HW      1905 WAT      0.417000
   5827 O           5.4747   19.3138    6.7140 OW      1906 WAT     -0.834000
   5828 H1          5.2911   18.4169    6.9935 HW      1906 WAT      0.417000
   5829 H2          5.7667   19.7577    7.5102 HW      1906 WAT      0.417000
   5830 O          33.9146   34.4589   28.2638 OW      1907 WAT     -0.834000
   5831 H1         33.7390   34.9403   27.4552 HW      1907 WAT      0.417000
   5832 H2         33.0881   34.4906   28.7456 HW      1907 WAT      0.417000
   5833 O          19.8708   24.5240    9.6311 OW      1908 WAT     -0.834000
   5834 H1         19.9937   23.5756    9.6704 HW      1908 WAT      0.417000
   5835 H2         19.0227   24.6731   10.0493 HW      1908 WAT      0.417000
   5836 O          26.1410   25.0070   24.9236 OW      1909 WAT     -0.834000
   5837 H1         26.3479   24.4956   24.1414 HW      1909 WAT      0.417000
   5838 H2         26.9887   25.3280   25.2311 HW      1909 WAT      0.417000
   5839 O           4.5570   36.5704   35.8197 OW      1910 WAT     -0.834000
   5840 H1          5.3404   36.2136   36.2383 HW      1910 WAT      0.417000
   5841 H2          4.5106   37.4748   36.1296 HW      1910 WAT      0.417000
   5842 O          15.9429    1.2732   34.8191 OW      1911 WAT     -0.834000
   5843 H1         16.5932    1.9294   34.5686 HW      1911 WAT      0.417000
   5844 H2         16.3973    0.4363   34.7217 HW      1911 WAT      0.417000
   5845 O          13.0855   20.9375   27.5725 OW      1912 WAT     -0.834000
   5846 H1         13.4591   21.3229   26.7800 HW      1912 WAT      0.417000
   5847 H2         12.3095   20.4675   27.2674 HW      1912 WAT      0.417000
   5848 O           8.1688   11.4422   25.7311 OW      1913 WAT     -0.834000
   5849 H1          8.6357   12.2463   25.5036 HW      1913 WAT      0.417000
   5850 H2          8.7884   10.9494   26.2691 HW      1913 WAT      0.417000
   5851 O          19.7802   15.6152   40.6000 OW      1914 WAT     -0.834000
   5852 H1         19.5551   14.6852   40.6258 HW      1914 WAT      0.417000
   5853 H2         18.9470   16.0590   40.4419 HW      1914 WAT      0.417000
   5854 O          19.6889   19.8945   28.1209 OW      1915 WAT     -0.834000
   5855 H1         20.0600   20.7720   28.2127 HW      1915 WAT      0.417000
   5856 H2         19.0406   19.9805   27.4219 HW      1915 WAT      0.417000
   5857 O           6.3101   20.1903   13.1620 OW      1916 WAT     -0.834000
   5858 H1          7.1599   20.6275   13.2164 HW      1916 WAT      0.417000
   5859 H2          5.8028   20.5622   13.8835 HW      1916 WAT      0.417000
   5860 O          30.0130   31.3147   25.1156 OW      1917 WAT     -0.834000
   5861 H1         29.7149   31.0563   24.2435 HW      1917 WAT      0.417000
   5862 H2         29.2144   31.5758   25.5741 HW      1917 WAT      0.417000
   5863 O          12.5995   20.3024   32.3841 OW      1918 WAT     -0.834000
   5864 H1         12.5610   21.1284   31.9019 HW      1918 WAT      0.417000
   5865 H2         13.5351   20.1346   32.4972 HW      1918 WAT      0.417000
   5866 O           4.1309    7.9662   32.7268 OW      1919 WAT     -0.834000
   5867 H1          3.7269    7.0987   32.7025 HW      1919 WAT      0.417000
   5868 H2          3.4243    8.5662   32.4882 HW      1919 WAT      0.417000
   5869 O          28.3740    1.6143   29.0204 OW      1920 WAT     -0.834000
   5870 H1         27.9118    2.2221   29.5977 HW      1920 WAT      0.417000
   5871 H2         27.7333    1.3914   28.3450 HW      1920 WAT      0.417000
   5872 O           4.3863   29.1075   19.7514 OW      1921 WAT     -0.834000
   5873 H1          5.3199   29.2617   19.8957 HW      1921 WAT      0.417000
   5874 H2          3.9512   29.8282   20.2069 HW      1921 WAT      0.417000
   5875 O          11.4698   34.0367   11.2325 OW      1922 WAT     -0.834000
   5876 H1         11.2471   33.9547   10.3052 HW      1922 WAT      0.417000
   5877 H2         12.3089   33.5842   11.3183 HW      1922 WAT      0.417000
   5878 O          28.0774   33.8392   29.9005 OW      1923 WAT     -0.834000
   5879 H1         28.0298   33.4044   29.0491 HW      1923 WAT      0.417000
   5880 H2         28.9260   34.2820   29.8962 HW      1923 WAT      0.417000
   5881 O           4.4552   31.7332   49.7800 OW      1924 WAT     -0.834000
   5882 H1          5.1481   31.4440   50.3737 HW      1924 WAT      0.417000
   5883 H2          4.7736   32.5639   49.4268 HW      1924 WAT      0.417000
   5884 O          20.7004   36.4185   35.8693 OW      1925 WAT     -0.834000
   5885 H1         19.8068   36.3617   36.2077 HW      1925 WAT      0.417000
   5886 H2         20.9095   35.5258   35.5943 HW      1925 WAT      0.417000
   5887 O          10.1085   32.8591    8.9909 OW      1926 WAT     -0.834000
   5888 H1         10.4820   32.6801    8.1280 HW      1926 WAT      0.417000
   5889 H2         10.3516   32.0990    9.5195 HW      1926 WAT      0.417000
   5890 O          15.1201   11.8226   48.2501 OW      1927 WAT     -0.834000
   5891 H1         14.4301   11.5880   47.6295 HW      1927 WAT      0.417000
   5892 H2         14.6847   11.8257   49.1025 HW      1927 WAT      0.417000
   5893 O          30.5381   34.6958   48.7620 OW      1928 WAT     -0.834000
   5894 H1         30.1146   34.9464   47.9410 HW      1928 WAT      0.417000
   5895 H2         30.9593   33.8583   48.5685 HW      1928 WAT      0.417000
   5896 O          20.9685    4.7864   51.4832 OW      1929 WAT     -0.834000
   5897 H1         21.5344    4.6700   52.2464 HW      1929 WAT      0.417000
   5898 H2         21.4177    4.3196   50.7786 HW      1929 WAT      0.417000
   5899 O          24.0871   35.1599   25.3344 OW      1930 WAT     -0.834000
   5900 H1         23.5828   34.3464   25.3291 HW      1930 WAT      0.417000
   5901 H2         23.4755   35.8187   25.6634 HW      1930 WAT      0.417000
   5902 O          27.8868   30.5348    3.0111 OW      1931 WAT     -0.834000
   5903 H1         27.5757   29.6307    2.9662 HW      1931 WAT      0.417000
   5904 H2         27.8003   30.8627    2.1160 HW      1931 WAT      0.417000
   5905 O           6.9734    7.8484   27.6905 OW      1932 WAT     -0.834000
   5906 H1          7.5284    8.3592   28.2798 HW      1932 WAT      0.417000
   5907 H2          7.0720    6.9451   27.9916 HW      1932 WAT      0.417000
   5908 O          23.6607   25.0675   40.7488 OW      1933 WAT     -0.834000
   5909 H1         23.4369   25.2169   41.6674 HW      1933 WAT      0.417000
   5910 H2         22.9630   24.4999   40.4215 HW      1933 WAT      0.417000
   5911 O           6.0729   27.8810    0.5577 OW      1934 WAT     -0.834000
   5912 H1          5.6605   27.0422    0.3516 HW      1934 WAT      0.417000
   5913 H2          5.5395   28.2427    1.2654 HW      1934 WAT      0.417000
   5914 O           9.4629   15.1540   22.3340 OW      1935 WAT     -0.834000
   5915 H1          9.9154   14.4689   22.8260 HW      1935 WAT      0.417000
   5916 H2         10.1060   15.8589   22.2581 HW      1935 WAT      0.417000
   5917 O          28.8624   11.8803   41.4972 OW      1936 WAT     -0.834000
   5918 H1         27.9139   11.9751   41.5845 HW      1936 WAT      0.417000
   5919 H2         29.0123   11.8308   40.5531 HW      1936 WAT      0.417000
   5920 O          35.6505   15.7835   47.1882 OW      1937 WAT     -0.834000
   5921 H1         36.2284   15.2457   47.7295 HW      1937 WAT      0.417000
   5922 H2         36.0813   16.6376   47.1533 HW      1937 WAT      0.417000
   5923 O          32.5959   17.0476    5.5776 OW      1938 WAT     -0.834000
   5924 H1         31.7490   16.6128    5.6770 HW      1938 WAT      0.417000
   5925 H2         32.8381   17.3065    6.4668 HW      1938 WAT      0.417000
   5926 O          15.0877    0.2234    5.4227 OW      1939 WAT     -0.834000
   5927 H1         15.8505    0.2956    4.8490 HW      1939 WAT      0.417000
   5928 H2         15.4395   -0.1104    6.2480 HW      1939 WAT      0.417000
   5929 O          34.3238    9.7944   10.0773 OW      1940 WAT     -0.834000
   5930 H1         33.8943    9.0379   10.4766 HW      1940 WAT      0.417000
   5931 H2         33.6404   10.4632   10.0351 HW      1940 WAT      0.417000
   5932 O          33.1520    2.0403   25.2429 OW      1941 WAT     -0.834000
   5933 H1         33.0169    1.2603   24.7047 HW      1941 WAT      0.417000
   5934 H2         33.1014    1.7212   26.1439 HW      1941 WAT      0.417000
   5935 O          16.1919    9.4892   16.5626 OW      1942 WAT     -0.834000
   5936 H1         16.6997    9.5937   15.7580 HW      1942 WAT      0.417000
   5937 H2         16.1681   10.3658   16.9464 HW      1942 WAT      0.417000
   5938 O          29.2344   33.3067   12.4152 OW      1943 WAT     -0.834000
   5939 H1         28.8136   32.5038   12.7227 HW      1943 WAT      0.417000
   5940 H2         29.4948   33.7623   13.2157 HW      1943 WAT      0.417000
   5941 O          32.6870   14.1973   22.6303 OW      1944 WAT     -0.834000
   5942 H1         32.1990   13.9320   21.8507 HW      1944 WAT      0.417000
   5943 H2         33.6055   14.0700   22.3928 HW      1944 WAT      0.417000
   5944 O           5.7729   21.9958   15.6407 OW      1945 WAT     -0.834000
   5945 H1          6.3603   22.1136   16.3872 HW      1945 WAT      0.417000
   5946 H2          4.9073   22.2262   15.9782 HW      1945 WAT      0.417000
   5947 O           8.3956    7.2937   50.7426 OW      1946 WAT     -0.834000
   5948 H1          7.5487    7.1637   51.1693 HW      1946 WAT      0.417000
   5949 H2          8.4308    8.2330   50.5614 HW      1946 WAT      0.417000
   5950 O          32.9430   30.2112   37.9778 OW      1947 WAT     -0.834000
   5951 H1         32.2303   29.6423   38.2689 HW      1947 WAT      0.417000
   5952 H2         32.6341   30.5771   37.1490 HW      1947 WAT      0.417000
   5953 O          25.5164   27.7215    0.3160 OW      1948 WAT     -0.834000
   5954 H1         25.9553   27.9917    1.1226 HW      1948 WAT      0.417000
   5955 H2         25.6970   26.7840    0.2476 HW      1948 WAT      0.417000
   5956 O          19.4855   34.3044   48.4963 OW      1949 WAT     -0.834000
   5957 H1         18.9090   34.5170   47.7623 HW      1949 WAT      0.417000
   5958 H2         18.8997   34.2430   49.2508 HW      1949 WAT      0.417000
   5959 O          10.6412   23.3762   26.7134 OW      1950 WAT     -0.834000
   5960 H1         10.8552   23.3803   27.6463 HW      1950 WAT      0.417000
   5961 H2          9.7121   23.1481   26.6817 HW      1950 WAT      0.417000
   5962 O          25.4760   30.2551   17.2996 OW      1951 WAT     -0.834000
   5963 H1         24.8924   30.9577   17.5859 HW      1951 WAT      0.417000
   5964 H2         25.8787   29.9344   18.1066 HW      1951 WAT      0.417000
   5965 O          26.3051   10.4648    3.1196 OW      1952 WAT     -0.834000
   5966 H1         27.0277   10.7364    2.5537 HW      1952 WAT      0.417000
   5967 H2         26.3316    9.5082    3.0995 HW      1952 WAT      0.417000
   5968 O          10.4568   25.1395    7.3732 OW      1953 WAT     -0.834000
   5969 H1         11.0830   25.1214    8.0969 HW      1953 WAT      0.417000
   5970 H2         10.7131   24.4045    6.8162 HW      1953 WAT      0.417000
   5971 O          12.7221   24.5845   37.1990 OW      1954 WAT     -0.834000
   5972 H1         12.2945   24.1183   37.9173 HW      1954 WAT      0.417000
   5973 H2         12.4841   25.5018   37.3333 HW      1954 WAT      0.417000
   5974 O           0.4169    3.3743    1.1253 OW      1955 WAT     -0.834000
   5975 H1          0.2600    3.3639    2.0695 HW      1955 WAT      0.417000
   5976 H2          1.3145    3.6944    1.0353 HW      1955 WAT      0.417000
   5977 O           9.4708   10.7134   13.2581 OW      1956 WAT     -0.834000
   5978 H1         10.4205   10.7778   13.3590 HW      1956 WAT      0.417000
   5979 H2          9.1629   11.6184   13.3065 HW      1956 WAT      0.417000
   5980 O          29.3388   30.0328   22.6755 OW      1957 WAT     -0.834000
   5981 H1         28.8416   29.2677   22.3863 HW      1957 WAT      0.417000
   5982 H2         30.2550   29.7796   22.5629 HW      1957 WAT      0.417000
   5983 O          22.4873   23.3783   49.3991 OW      1958 WAT     -0.834000
   5984 H1         23.3508   23.0232   49.6102 HW      1958 WAT      0.417000
   5985 H2         21.9117   23.0285   50.0791 HW      1958 WAT      0.417000
   5986 O           4.0651   11.5890   44.6849 OW      1959 WAT     -0.834000
   5987 H1          3.9665   12.2503   45.3699 HW      1959 WAT      0.417000
   5988 H2          4.0462   10.7544   45.1532 HW      1959 WAT      0.417000
   5989 O          28.5384   24.2272   20.6849 OW      1960 WAT     -0.834000
   5990 H1         27.7472   24.7291   20.8807 HW      1960 WAT      0.417000
   5991 H2         28.4966   24.0726   19.7412 HW      1960 WAT      0.417000
   5992 O          31.0677    3.8083   45.6339 OW      1961 WAT     -0.834000
   5993 H1         31.1730    3.9977   46.5663 HW      1961 WAT      0.417000
   5994 H2         30.9010    4.6617   45.2336 HW      1961 WAT      0.417000
   5995 O           0.1074    2.5313   40.2576 OW      1962 WAT     -0.834000
   5996 H1          0.7309    2.5587   40.9834 HW      1962 WAT      0.417000
   5997 H2         -0.2602    1.6482   40.2908 HW      1962 WAT      0.417000
   5998 O          27.3548    7.2265    5.5446 OW      1963 WAT     -0.834000
   5999 H1         27.1026    6.5535    4.9124 HW      1963 WAT      0.417000
   6000 H2         28.1272    7.6400    5.1591 HW      1963 WAT      0.417000
   6001 O           2.3504   16.4567   24.0099 OW      1964 WAT     -0.834000
   6002 H1          2.6334   17.2037   24.5373 HW      1964 WAT      0.417000
   6003 H2          2.1106   16.8371   23.1649 HW      1964 WAT      0.417000
   6004 O           0.6771   28.6493   12.3930 OW      1965 WAT     -0.834000
   6005 H1          0.0898   29.2105   12.8992 HW      1965 WAT      0.417000
   6006 H2          1.0815   29.2384   11.7561 HW      1965 WAT      0.417000
   6007 O          28.4198   11.4267   26.6348 OW      1966 WAT     -0.834000
   6008 H1         28.5080   11.1416   25.7253 HW      1966 WAT      0.417000
   6009 H2         28.6735   10.6617   27.1513 HW      1966 WAT      0.417000
   6010 O          26.7405    9.0882   39.2596 OW      1967 WAT     -0.834000
   6011 H1         26.6823   10.0195   39.4730 HW      1967 WAT      0.417000
   6012 H2         25.9605    8.9141   38.7328 HW      1967 WAT      0.417000
   6013 O          33.8576   31.9240   12.4728 OW      1968 WAT     -0.834000
   6014 H1         33.4700   31.9809   11.5995 HW      1968 WAT      0.417000
   6015 H2         34.1988   31.0312   12.5256 HW      1968 WAT      0.417000
   6016 O          14.8664   14.4829   40.6974 OW      1969 WAT     -0.834000
   6017 H1         15.6232   13.9031   40.6114 HW      1969 WAT      0.417000
   6018 H2         14.9509   14.8587   41.5736 HW      1969 WAT      0.417000
   6019 O           7.3384   23.4523    4.6535 OW      1970 WAT     -0.834000
   6020 H1          8.2804   23.5151    4.4960 HW      1970 WAT      0.417000
   6021 H2          6.9797   24.2597    4.2851 HW      1970 WAT      0.417000
   6022 O           1.9160   24.9296   40.1388 OW      1971 WAT     -0.834000
   6023 H1          0.9766   24.9892   40.3129 HW      1971 WAT      0.417000
   6024 H2          2.0559   24.0163   39.8890 HW      1971 WAT      0.417000
   6025 O          21.9110   16.1555   22.7439 OW      1972 WAT     -0.834000
   6026 H1         22.5109   15.9176   22.0370 HW      1972 WAT      0.417000
   6027 H2         22.4827   16.4228   23.4635 HW      1972 WAT      0.417000
   6028 O           5.2671   25.1786   30.7899 OW      1973 WAT     -0.834000
   6029 H1          4.7563   24.6748   30.1562 HW      1973 WAT      0.417000
   6030 H2          5.3112   24.6164   31.5633 HW      1973 WAT      0.417000
   6031 O          17.4651   30.7661    0.1359 OW      1974 WAT     -0.834000
   6032 H1         17.3646   30.9827    1.0628 HW      1974 WAT      0.417000
   6033 H2         18.3019   30.3039    0.0873 HW      1974 WAT      0.417000
   6034 O           5.5499    4.8824   38.9311 OW      1975 WAT     -0.834000
   6035 H1          5.2624    4.0145   38.6478 HW      1975 WAT      0.417000
   6036 H2          6.4987    4.8735   38.8047 HW      1975 WAT      0.417000
   6037 O          34.3347    3.5294   35.5626 OW      1976 WAT     -0.834000
   6038 H1         34.2304    2.6706   35.1531 HW      1976 WAT      0.417000
   6039 H2         34.7642    3.3458   36.3981 HW      1976 WAT      0.417000
   6040 O          23.8184    6.0007   34.6104 OW      1977 WAT     -0.834000
   6041 H1         23.2828    5.2121   34.5238 HW      1977 WAT      0.417000
   6042 H2         23.6267    6.3251   35.4903 HW      1977 WAT      0.417000
   6043 O          12.7884   24.7102   25.3638 OW      1978 WAT     -0.834000
   6044 H1         13.0769   25.3340   26.0300 HW      1978 WAT      0.417000
   6045 H2         11.8965   24.4786   25.6226 HW      1978 WAT      0.417000
   6046 O           2.6485   17.4869   29.1587 OW      1979 WAT     -0.834000
   6047 H1          1.9315   17.1571   28.6171 HW      1979 WAT      0.417000
   6048 H2          3.4112   17.4734   28.5805 HW      1979 WAT      0.417000
   6049 O           6.6137   29.8554    7.8576 OW      1980 WAT     -0.834000
   6050 H1          7.2214   29.1929    7.5288 HW      1980 WAT      0.417000
   6051 H2          5.8000   29.3766    8.0155 HW      1980 WAT      0.417000
   6052 O          14.9795    6.1342    5.2618 OW      1981 WAT     -0.834000
   6053 H1         14.2474    5.6758    4.8495 HW      1981 WAT      0.417000
   6054 H2         15.0397    6.9640    4.7884 HW      1981 WAT      0.417000
   6055 O          11.5900   10.7266    3.0338 OW      1982 WAT     -0.834000
   6056 H1         12.0462   11.4297    3.4962 HW      1982 WAT      0.417000
   6057 H2         11.0875   10.2789    3.7145 HW      1982 WAT      0.417000
   6058 O          34.1525    7.6760   22.6743 OW      1983 WAT     -0.834000
   6059 H1         35.0467    7.6720   23.0159 HW      1983 WAT      0.417000
   6060 H2         34.2130    7.2118   21.8394 HW      1983 WAT      0.417000
   6061 O           8.4865   19.3574   30.3998 OW      1984 WAT     -0.834000
   6062 H1          8.1176   19.8987   31.0978 HW      1984 WAT      0.417000
   6063 H2          7.9465   19.5533   29.6341 HW      1984 WAT      0.417000
   6064 O          14.2965   11.2150   10.7046 OW      1985 WAT     -0.834000
   6065 H1         14.0169   12.0901   10.9735 HW      1985 WAT      0.417000
   6066 H2         14.2074   10.6818   11.4945 HW      1985 WAT      0.417000
   6067 O          21.6901    6.1048   43.6582 OW      1986 WAT     -0.834000
   6068 H1         21.0742    5.4197   43.3984 HW      1986 WAT      0.417000
   6069 H2         21.1473    6.7626   44.0928 HW      1986 WAT      0.417000
   6070 O           2.2355    2.0820   26.5089 OW      1987 WAT     -0.834000
   6071 H1          3.0284    2.3912   26.9471 HW      1987 WAT      0.417000
   6072 H2          1.5490    2.6787   26.8069 HW      1987 WAT      0.417000
   6073 O          18.9241    9.3493   19.5869 OW      1988 WAT     -0.834000
   6074 H1         18.7449    8.5140   19.1551 HW      1988 WAT      0.417000
   6075 H2         19.8280    9.2719   19.8922 HW      1988 WAT      0.417000
   6076 O          28.1022    0.8305   43.1159 OW      1989 WAT     -0.834000
   6077 H1         27.6092    1.6509   43.1068 HW      1989 WAT      0.417000
   6078 H2         28.7436    0.9443   43.8173 HW      1989 WAT      0.417000
   6079 O          10.0986   19.4475   33.8489 OW      1990 WAT     -0.834000
   6080 H1         10.8367   19.6333   33.2685 HW      1990 WAT      0.417000
   6081 H2         10.3563   18.6536   34.3173 HW      1990 WAT      0.417000
   6082 O          34.0611   30.6374   21.5056 OW      1991 WAT     -0.834000
   6083 H1         33.8569   29.9248   22.1112 HW      1991 WAT      0.417000
   6084 H2         33.4504   31.3354   21.7424 HW      1991 WAT      0.417000
   6085 O          19.2828    5.4759   10.7810 OW      1992 WAT     -0.834000
   6086 H1         19.6622    5.9622   10.0490 HW      1992 WAT      0.417000
   6087 H2         18.6551    6.0834   11.1724 HW      1992 WAT      0.417000
   6088 O           4.2780   28.9535    7.4270 OW      1993 WAT     -0.834000
   6089 H1          3.9982   29.1801    6.5401 HW      1993 WAT      0.417000
   6090 H2          4.1369   28.0087    7.4886 HW      1993 WAT      0.417000
   6091 O          23.7026   13.2015   48.9768 OW      1994 WAT     -0.834000
   6092 H1         22.8991   13.7161   48.9006 HW      1994 WAT      0.417000
   6093 H2         23.9551   13.2865   49.8962 HW      1994 WAT      0.417000
   6094 O          30.3053    8.1095    5.6399 OW      1995 WAT     -0.834000
   6095 H1         30.6021    8.2975    4.7495 HW      1995 WAT      0.417000
   6096 H2         30.6905    7.2577    5.8459 HW      1995 WAT      0.417000
   6097 O          15.2230   14.7174   51.5649 OW      1996 WAT     -0.834000
   6098 H1         14.2746   14.8181   51.4829 HW      1996 WAT      0.417000
   6099 H2         15.5673   14.9916   50.7149 HW      1996 WAT      0.417000
   6100 O           2.5847   27.5565   33.7561 OW      1997 WAT     -0.834000
   6101 H1          2.8821   28.2403   33.1559 HW      1997 WAT      0.417000
   6102 H2          1.7367   27.2830   33.4064 HW      1997 WAT      0.417000
   6103 O          33.8251   23.5679   17.2804 OW      1998 WAT     -0.834000
   6104 H1         33.0200   23.5203   16.7648 HW      1998 WAT      0.417000
   6105 H2         33.7015   22.9238   17.9776 HW      1998 WAT      0.417000
   6106 O           5.5360   18.2237   47.3637 OW      1999 WAT     -0.834000
   6107 H1          4.9750   18.9985   47.3994 HW      1999 WAT      0.417000
   6108 H2          6.2244   18.3967   48.0059 HW      1999 WAT      0.417000
   6109 O          23.0871    8.8718   30.8148 OW      2000 WAT     -0.834000
   6110 H1         22.5352    9.5851   31.1355 HW      2000 WAT      0.417000
   6111 H2         23.2409    9.0833   29.8941 HW      2000 WAT      0.417000
   6112 O           5.9345   10.1724    0.1165 OW      2001 WAT     -0.834000
   6113 H1          5.6824   10.2927    1.0320 HW      2001 WAT      0.417000
   6114 H2          6.4073   10.9735   -0.1090 HW      2001 WAT      0.417000
   6115 O           9.6555    2.9318   31.8570 OW      2002 WAT     -0.834000
   6116 H1          9.8153    2.5982   30.9742 HW      2002 WAT      0.417000
   6117 H2         10.1868    3.7261   31.9128 HW      2002 WAT      0.417000
   6118 O           3.0535   32.3363   17.8969 OW      2003 WAT     -0.834000
   6119 H1          2.4325   31.6321   18.0833 HW      2003 WAT      0.417000
   6120 H2          3.2905   32.6809   18.7579 HW      2003 WAT      0.417000
   6121 O           9.4907   23.2300   19.2058 OW      2004 WAT     -0.834000
   6122 H1          9.8528   24.0573   19.5232 HW      2004 WAT      0.417000
   6123 H2         10.2511   22.6561   19.1118 HW      2004 WAT      0.417000
   6124 O          28.9681   36.5309   26.2120 OW      2005 WAT     -0.834000
   6125 H1         28.1956   35.9738   26.1164 HW      2005 WAT      0.417000
   6126 H2         29.3801   36.2321   27.0227 HW      2005 WAT      0.417000
   6127 O           8.6787    9.9768   50.4134 OW      2006 WAT     -0.834000
   6128 H1          7.7805   10.2659   50.2525 HW      2006 WAT      0.417000
   6129 H2          9.0368   10.6304   51.0140 HW      2006 WAT      0.417000
   6130 O           6.6892    2.6387   31.2210 OW      2007 WAT     -0.834000
   6131 H1          6.8967    3.5253   31.5163 HW      2007 WAT      0.417000
   6132 H2          6.0333    2.3261   31.8442 HW      2007 WAT      0.417000
   6133 O          25.5405   25.5786   14.7142 OW      2008 WAT     -0.834000
   6134 H1         25.2102   26.4532   14.9197 HW      2008 WAT      0.417000
   6135 H2         26.4918   25.6817   14.6893 HW      2008 WAT      0.417000
   6136 O          14.2115   30.6323   33.7864 OW      2009 WAT     -0.834000
   6137 H1         15.1464   30.8141   33.6918 HW      2009 WAT      0.417000
   6138 H2         13.8159   31.4889   33.9476 HW      2009 WAT      0.417000
   6139 O          32.3124   27.1057   37.4315 OW      2010 WAT     -0.834000
   6140 H1         31.8517   27.3995   38.2174 HW      2010 WAT      0.417000
   6141 H2         31.6313   26.7079   36.8892 HW      2010 WAT      0.417000
   6142 O          34.7146   28.4360   46.1948 OW      2011 WAT     -0.834000
   6143 H1         35.1939   27.9236   45.5437 HW      2011 WAT      0.417000
   6144 H2         35.3285   28.5326   46.9229 HW      2011 WAT      0.417000
   6145 O          35.9729   32.3803   22.1023 OW      2012 WAT     -0.834000
   6146 H1         35.2328   31.8482   21.8100 HW      2012 WAT      0.417000
   6147 H2         36.6190   31.7440   22.4088 HW      2012 WAT      0.417000
   6148 O          19.7469    2.8718   24.0759 OW      2013 WAT     -0.834000
   6149 H1         19.6105    3.6720   24.5831 HW      2013 WAT      0.417000
   6150 H2         20.5603    3.0281   23.5961 HW      2013 WAT      0.417000
   6151 O           7.5086   33.2249   36.1644 OW      2014 WAT     -0.834000
   6152 H1          6.9364   33.7388   35.5946 HW      2014 WAT      0.417000
   6153 H2          8.1620   32.8509   35.5733 HW      2014 WAT      0.417000
   6154 O          29.1860   17.2366    9.5487 OW      2015 WAT     -0.834000
   6155 H1         29.8313   17.8935    9.2873 HW      2015 WAT      0.417000
   6156 H2         28.3654   17.7236    9.6238 HW      2015 WAT      0.417000
   6157 O          31.0359   23.3247   29.5099 OW      2016 WAT     -0.834000
   6158 H1         31.8182   23.1747   30.0407 HW      2016 WAT      0.417000
   6159 H2         30.5662   22.4911   29.5345 HW      2016 WAT      0.417000
   6160 O          22.2684   29.1121   48.9392 OW      2017 WAT     -0.834000
   6161 H1         21.8233   29.7978   48.4413 HW      2017 WAT      0.417000
   6162 H2         21.7118   28.3404   48.8343 HW      2017 WAT      0.417000
   6163 O          31.5020    7.0885   30.8797 OW      2018 WAT     -0.834000
   6164 H1         31.8187    6.2212   31.1324 HW      2018 WAT      0.417000
   6165 H2         31.2240    6.9862   29.9695 HW      2018 WAT      0.417000
   6166 O          15.7234   35.6709   38.1395 OW      2019 WAT     -0.834000
   6167 H1         15.6523   35.5806   39.0898 HW      2019 WAT      0.417000
   6168 H2         16.4073   36.3282   38.0119 HW      2019 WAT      0.417000
   6169 O          16.8278   15.7532   42.7625 OW      2020 WAT     -0.834000
   6170 H1         16.6597   16.1675   41.9161 HW      2020 WAT      0.417000
   6171 H2         17.4635   16.3283   43.1885 HW      2020 WAT      0.417000
   6172 O          28.2709   16.1888   33.1983 OW      2021 WAT     -0.834000
   6173 H1         27.3758   16.2773   33.5255 HW      2021 WAT      0.417000
   6174 H2         28.6407   15.4656   33.7048 HW      2021 WAT      0.417000
   6175 O          34.6107   16.2356   37.9405 OW      2022 WAT     -0.834000
   6176 H1         35.2283   16.9616   37.8530 HW      2022 WAT      0.417000
   6177 H2         34.1769   16.1862   37.0886 HW      2022 WAT      0.417000
   6178 O          25.0623   33.1936   10.5397 OW      2023 WAT     -0.834000
   6179 H1         24.3228   33.4171   11.1048 HW      2023 WAT      0.417000
   6180 H2         24.7923   33.4804    9.6673 HW      2023 WAT      0.417000
   6181 O          35.6674    7.1186   14.1275 OW      2024 WAT     -0.834000
   6182 H1         36.2488    6.5999   13.5713 HW      2024 WAT      0.417000
   6183 H2         35.5857    6.6064   14.9319 HW      2024 WAT      0.417000
   6184 O          28.2160   25.6336    3.4404 OW      2025 WAT     -0.834000
   6185 H1         28.8396   24.9287    3.2657 HW      2025 WAT      0.417000
   6186 H2         28.4207   25.9193    4.3307 HW      2025 WAT      0.417000
   6187 O          12.1549   26.2354   32.9284 OW      2026 WAT     -0.834000
   6188 H1         11.6332   25.8658   33.6407 HW      2026 WAT      0.417000
   6189 H2         13.0477   26.2592   33.2728 HW      2026 WAT      0.417000
   6190 O           5.6585    4.9197   34.8862 OW      2027 WAT     -0.834000
   6191 H1          4.7657    4.7200   35.1677 HW      2027 WAT      0.417000
   6192 H2          6.1389    5.0680   35.7007 HW      2027 WAT      0.417000
   6193 O          25.6439    6.8741   13.5163 OW      2028 WAT     -0.834000
   6194 H1         24.9170    7.4459   13.2695 HW      2028 WAT      0.417000
   6195 H2         26.0903    6.6844   12.6911 HW      2028 WAT      0.417000
   6196 O          19.1011   17.9524   12.9393 OW      2029 WAT     -0.834000
   6197 H1         19.5508   17.4272   13.6013 HW      2029 WAT      0.417000
   6198 H2         19.0974   17.4002   12.1575 HW      2029 WAT      0.417000
   6199 O           3.3062   21.3873    3.7880 OW      2030 WAT     -0.834000
   6200 H1          3.9339   21.6227    4.4712 HW      2030 WAT      0.417000
   6201 H2          3.8266   20.9179    3.1360 HW      2030 WAT      0.417000
   6202 O           5.4970   18.7204   33.1721 OW      2031 WAT     -0.834000
   6203 H1          5.9096   18.9365   32.3359 HW      2031 WAT      0.417000
   6204 H2          6.2276   18.4983   33.7493 HW      2031 WAT      0.417000
   6205 O          31.2908   12.0314   47.0345 OW      2032 WAT     -0.834000
   6206 H1         31.1295   12.6456   46.3183 HW      2032 WAT      0.417000
   6207 H2         32.1937   11.7421   46.9032 HW      2032 WAT      0.417000
   6208 O          33.2821   16.5217   48.3116 OW      2033 WAT     -0.834000
   6209 H1         34.0603   16.2374   47.8322 HW      2033 WAT      0.417000
   6210 H2         33.5976   16.6963   49.1983 HW      2033 WAT      0.417000
   6211 O           1.9049   34.1988   10.9636 OW      2034 WAT     -0.834000
   6212 H1          2.0683   34.3428   10.0315 HW      2034 WAT      0.417000
   6213 H2          0.9509   34.1865   11.0404 HW      2034 WAT      0.417000
   6214 O          31.4507   33.6599   45.0475 OW      2035 WAT     -0.834000
   6215 H1         31.2992   32.7167   45.1072 HW      2035 WAT      0.417000
   6216 H2         30.6929   34.0522   45.4811 HW      2035 WAT      0.417000
   6217 O           8.8648   17.9115   49.8832 OW      2036 WAT     -0.834000
   6218 H1          8.9692   18.4586   49.1048 HW      2036 WAT      0.417000
   6219 H2          8.3623   17.1557   49.5791 HW      2036 WAT      0.417000
   6220 O          15.1551    2.9544   27.5987 OW      2037 WAT     -0.834000
   6221 H1         14.7596    2.3053   28.1804 HW      2037 WAT      0.417000
   6222 H2         14.8789    2.6896   26.7213 HW      2037 WAT      0.417000
   6223 O          23.9018   12.6056    2.3580 OW      2038 WAT     -0.834000
   6224 H1         24.5004   11.8719    2.2179 HW      2038 WAT      0.417000
   6225 H2         23.1710   12.2283    2.8478 HW      2038 WAT      0.417000
   6226 O          30.6525   21.8487   10.6005 OW      2039 WAT     -0.834000
   6227 H1         30.3526   21.8286   11.5093 HW      2039 WAT      0.417000
   6228 H2         31.5207   22.2494   10.6436 HW      2039 WAT      0.417000
   6229 O           7.4918    8.6969   37.7489 OW      2040 WAT     -0.834000
   6230 H1          8.0904    9.2952   38.1960 HW      2040 WAT      0.417000
   6231 H2          7.7647    8.7260   36.8319 HW      2040 WAT      0.417000
   6232 O           9.8241   30.7064   41.2006 OW      2041 WAT     -0.834000
   6233 H1          9.8219   31.6624   41.2491 HW      2041 WAT      0.417000
   6234 H2          9.4868   30.4227   42.0503 HW      2041 WAT      0.417000
   6235 O           4.7179   15.0558   24.4574 OW      2042 WAT     -0.834000
   6236 H1          4.6317   14.6145   23.6124 HW      2042 WAT      0.417000
   6237 H2          3.9622   15.6417   24.4998 HW      2042 WAT      0.417000
   6238 O          14.0951    2.9711   25.0512 OW      2043 WAT     -0.834000
   6239 H1         13.4043    3.1711   24.4195 HW      2043 WAT      0.417000
   6240 H2         14.7303    3.6791   24.9437 HW      2043 WAT      0.417000
   6241 O           0.7517   30.6613   37.7655 OW      2044 WAT     -0.834000
   6242 H1          1.2660   30.4668   38.5490 HW      2044 WAT      0.417000
   6243 H2          0.9663   31.5707   37.5577 HW      2044 WAT      0.417000
   6244 O          25.6641   34.2699   34.9838 OW      2045 WAT     -0.834000
   6245 H1         26.5301   33.8889   35.1292 HW      2045 WAT      0.417000
   6246 H2         25.0701   33.5193   34.9789 HW      2045 WAT      0.417000
   6247 O          14.8558   10.6731    5.5489 OW      2046 WAT     -0.834000
   6248 H1         14.8100   10.6640    6.5050 HW      2046 WAT      0.417000
   6249 H2         15.6682   11.1396    5.3525 HW      2046 WAT      0.417000
   6250 O          11.6392   28.1731   26.5217 OW      2047 WAT     -0.834000
   6251 H1         11.0481   28.8897   26.2910 HW      2047 WAT      0.417000
   6252 H2         11.0583   27.4485   26.7535 HW      2047 WAT      0.417000
   6253 O          33.1585    1.5316   47.3292 OW      2048 WAT     -0.834000
   6254 H1         33.1085    1.3906   46.3837 HW      2048 WAT      0.417000
   6255 H2         32.6646    2.3380   47.4776 HW      2048 WAT      0.417000
   6256 O           2.3729    7.3602   45.1210 OW      2049 WAT     -0.834000
   6257 H1          2.2880    6.4141   45.2384 HW      2049 WAT      0.417000
   6258 H2          2.5167    7.4730   44.1814 HW      2049 WAT      0.417000
   6259 O          33.7693    3.0122   50.4010 OW      2050 WAT     -0.834000
   6260 H1         33.0044    2.9381   50.9716 HW      2050 WAT      0.417000
   6261 H2         34.0248    3.9327   50.4611 HW      2050 WAT      0.417000
   6262 O          16.0718    3.4096   10.9497 OW      2051 WAT     -0.834000
   6263 H1         15.1589    3.2420   10.7158 HW      2051 WAT      0.417000
   6264 H2         16.5778    3.0009   10.2475 HW      2051 WAT      0.417000
   6265 O          10.3088   17.5927    0.8050 OW      2052 WAT     -0.834000
   6266 H1          9.7184   17.8001    0.0807 HW      2052 WAT      0.417000
   6267 H2          9.7462   17.1852    1.4635 HW      2052 WAT      0.417000
   6268 O           7.1657   34.2437   40.0814 OW      2053 WAT     -0.834000
   6269 H1          7.7096   34.6017   39.3799 HW      2053 WAT      0.417000
   6270 H2          6.7222   35.0060   40.4535 HW      2053 WAT      0.417000
   6271 O          35.1225   22.1140   46.3737 OW      2054 WAT     -0.834000
   6272 H1         36.0427   22.3659   46.4506 HW      2054 WAT      0.417000
   6273 H2         34.7598   22.2623   47.2471 HW      2054 WAT      0.417000
   6274 O          31.7029   27.0426   33.0348 OW      2055 WAT     -0.834000
   6275 H1         30.8964   26.5528   32.8744 HW      2055 WAT      0.417000
   6276 H2         32.2672   26.8244   32.2931 HW      2055 WAT      0.417000
   6277 O          30.1442   34.4650   41.6942 OW      2056 WAT     -0.834000
   6278 H1         29.7648   33.8971   41.0235 HW      2056 WAT      0.417000
   6279 H2         29.4642   34.5313   42.3645 HW      2056 WAT      0.417000
   6280 O          34.7609   12.7364   34.0727 OW      2057 WAT     -0.834000
   6281 H1         34.4343   13.5619   33.7146 HW      2057 WAT      0.417000
   6282 H2         35.5780   12.9726   34.5120 HW      2057 WAT      0.417000
   6283 O          27.7367   25.9574   30.5379 OW      2058 WAT     -0.834000
   6284 H1         26.8350   26.2227   30.7187 HW      2058 WAT      0.417000
   6285 H2         28.1701   26.7613   30.2515 HW      2058 WAT      0.417000
   6286 O          16.9060   12.1583   51.3349 OW      2059 WAT     -0.834000
   6287 H1         16.2811   12.6570   51.8613 HW      2059 WAT      0.417000
   6288 H2         16.4207   11.9265   50.5430 HW      2059 WAT      0.417000
   6289 O          20.3805    7.8685   24.1382 OW      2060 WAT     -0.834000
   6290 H1         19.6919    7.2335   23.9413 HW      2060 WAT      0.417000
   6291 H2         20.6869    7.6262   25.0121 HW      2060 WAT      0.417000
   6292 O           2.6036    0.2469   -0.0520 OW      2061 WAT     -0.834000
   6293 H1          1.8987   -0.3985   -0.1059 HW      2061 WAT      0.417000
   6294 H2          2.7366    0.3785    0.8867 HW      2061 WAT      0.417000
   6295 O          31.2927   11.2281   42.8835 OW      2062 WAT     -0.834000
   6296 H1         31.1058   11.6333   43.7303 HW      2062 WAT      0.417000
   6297 H2         30.5234   11.4248   42.3489 HW      2062 WAT      0.417000
   6298 O           3.6974   20.4537   47.0736 OW      2063 WAT     -0.834000
   6299 H1          2.8566   20.8637   46.8709 HW      2063 WAT      0.417000
   6300 H2          3.9951   20.8975   47.8677 HW      2063 WAT      0.417000
   6301 O           2.9719   19.8631   39.2931 OW      2064 WAT     -0.834000
   6302 H1          3.2312   19.1653   38.6914 HW      2064 WAT      0.417000
   6303 H2          2.0906   19.6198   39.5765 HW      2064 WAT      0.417000
   6304 O          25.1646   33.9398    1.3884 OW      2065 WAT     -0.834000
   6305 H1         26.0265   34.0136    1.7982 HW      2065 WAT      0.417000
   6306 H2         25.1456   34.6453    0.7418 HW      2065 WAT      0.417000
   6307 O          34.7164    5.7852    7.7014 OW      2066 WAT     -0.834000
   6308 H1         35.0415    6.6856    7.7061 HW      2066 WAT      0.417000
   6309 H2         34.4417    5.6251    8.6042 HW      2066 WAT      0.417000
   6310 O           9.1674   10.5596   42.9589 OW      2067 WAT     -0.834000
   6311 H1          8.2505   10.5326   42.6855 HW      2067 WAT      0.417000
   6312 H2          9.6628   10.4586   42.1461 HW      2067 WAT      0.417000
   6313 O          33.7330   21.5610   24.6766 OW      2068 WAT     -0.834000
   6314 H1         34.2174   21.4611   23.8571 HW      2068 WAT      0.417000
   6315 H2         33.1058   20.8379   24.6738 HW      2068 WAT      0.417000
   6316 O           4.3679   31.9985   11.7525 OW      2069 WAT     -0.834000
   6317 H1          4.5018   31.3249   12.4192 HW      2069 WAT      0.417000
   6318 H2          3.4899   31.8273   11.4120 HW      2069 WAT      0.417000
   6319 O           9.5290   15.7303   27.6123 OW      2070 WAT     -0.834000
   6320 H1         10.1365   16.2525   27.0883 HW      2070 WAT      0.417000
   6321 H2          9.9010   15.7434   28.4941 HW      2070 WAT      0.417000
   6322 O          18.8327   19.7158    0.7629 OW      2071 WAT     -0.834000
   6323 H1         19.3642   19.0767    1.2376 HW      2071 WAT      0.417000
   6324 H2         19.3460   19.9211   -0.0185 HW      2071 WAT      0.417000
   6325 O          33.1868    7.6811   26.1302 OW      2072 WAT     -0.834000
   6326 H1         34.0310    7.9818   25.7940 HW      2072 WAT      0.417000
   6327 H2         32.8239    7.1473   25.4234 HW      2072 WAT      0.417000
   6328 O          13.8565    8.3578   28.5605 OW      2073 WAT     -0.834000
   6329 H1         14.2129    8.9756   29.1989 HW      2073 WAT      0.417000
   6330 H2         14.3653    7.5578   28.6915 HW      2073 WAT      0.417000
   6331 O          10.7765    4.4215   18.9366 OW      2074 WAT     -0.834000
   6332 H1         10.6742    3.5628   18.5263 HW      2074 WAT      0.417000
   6333 H2         11.6954    4.6477   18.7929 HW      2074 WAT      0.417000
   6334 O           8.8298   33.7240    1.6404 OW      2075 WAT     -0.834000
   6335 H1          8.5564   33.3834    2.4922 HW      2075 WAT      0.417000
   6336 H2          9.2219   34.5747    1.8372 HW      2075 WAT      0.417000
   6337 O           6.8809   15.8985   27.9369 OW      2076 WAT     -0.834000
   6338 H1          7.0498   15.5621   28.8170 HW      2076 WAT      0.417000
   6339 H2          7.6812   15.7049   27.4488 HW      2076 WAT      0.417000
   6340 O          31.4911    4.1995   14.0819 OW      2077 WAT     -0.834000
   6341 H1         31.4354    4.9833   14.6286 HW      2077 WAT      0.417000
   6342 H2         30.7850    4.3019   13.4438 HW      2077 WAT      0.417000
   6343 O          11.1906   27.1728   11.1929 OW      2078 WAT     -0.834000
   6344 H1         10.3207   27.1232   10.7965 HW      2078 WAT      0.417000
   6345 H2         11.0728   27.7337   11.9596 HW      2078 WAT      0.417000
   6346 O           3.4479   29.7202   35.7895 OW      2079 WAT     -0.834000
   6347 H1          3.1002   29.0776   35.1712 HW      2079 WAT      0.417000
   6348 H2          3.8307   29.1942   36.4917 HW      2079 WAT      0.417000
   6349 O          28.9083    9.5043   21.6195 OW      2080 WAT     -0.834000
   6350 H1         29.0729    8.6824   21.1574 HW      2080 WAT      0.417000
   6351 H2         29.2437   10.1810   21.0313 HW      2080 WAT      0.417000
   6352 O          30.0063   34.7909   14.5565 OW      2081 WAT     -0.834000
   6353 H1         29.3918   35.1767   15.1807 HW      2081 WAT      0.417000
   6354 H2         30.8622   34.8823   14.9752 HW      2081 WAT      0.417000
   6355 O          24.9259    0.7076   44.0282 OW      2082 WAT     -0.834000
   6356 H1         25.3665    0.7772   44.8752 HW      2082 WAT      0.417000
   6357 H2         24.8864    1.6074   43.7041 HW      2082 WAT      0.417000
   6358 O          25.3756   14.3822   29.9240 OW      2083 WAT     -0.834000
   6359 H1         25.4941   13.9087   30.7474 HW      2083 WAT      0.417000
   6360 H2         25.9810   13.9593   29.3151 HW      2083 WAT      0.417000
   6361 O          15.6273    3.7411   44.8669 OW      2084 WAT     -0.834000
   6362 H1         16.5320    3.8575   44.5766 HW      2084 WAT      0.417000
   6363 H2         15.5069    4.4037   45.5471 HW      2084 WAT      0.417000
   6364 O          10.6528   18.4975   29.0098 OW      2085 WAT     -0.834000
   6365 H1          9.9415   18.8867   29.5186 HW      2085 WAT      0.417000
   6366 H2         11.2608   18.1599   29.6675 HW      2085 WAT      0.417000
   6367 O           4.0583    0.3772   49.0256 OW      2086 WAT     -0.834000
   6368 H1          3.6825    1.2268   48.7949 HW      2086 WAT      0.417000
   6369 H2          3.6582    0.1590   49.8673 HW      2086 WAT      0.417000
   6370 O           0.7515   37.0349   37.1073 OW      2087 WAT     -0.834000
   6371 H1          1.2770   36.2350   37.1197 HW      2087 WAT      0.417000
   6372 H2         -0.0845   36.7783   37.4966 HW      2087 WAT      0.417000
   6373 O          28.7156   14.5130   18.0321 OW      2088 WAT     -0.834000
   6374 H1         29.1004   15.3803   17.9062 HW      2088 WAT      0.417000
   6375 H2         28.4201   14.2531   17.1596 HW      2088 WAT      0.417000
   6376 O          36.6160    2.0942   15.7454 OW      2089 WAT     -0.834000
   6377 H1         35.7890    1.9531   16.2063 HW      2089 WAT      0.417000
   6378 H2         36.8645    1.2259   15.4281 HW      2089 WAT      0.417000
   6379 O          19.3446    9.3738   32.6873 OW      2090 WAT     -0.834000
   6380 H1         19.3705   10.0681   33.3456 HW      2090 WAT      0.417000
   6381 H2         19.8035    9.7423   31.9324 HW      2090 WAT      0.417000
   6382 O          13.8550   16.6854   44.0332 OW      2091 WAT     -0.834000
   6383 H1         14.3736   17.4868   43.9617 HW      2091 WAT      0.417000
   6384 H2         13.0809   16.9448   44.5328 HW      2091 WAT      0.417000
   6385 O           3.6558   23.2399   21.8880 OW      2092 WAT     -0.834000
   6386 H1          4.4906   22.9450   22.2518 HW      2092 WAT      0.417000
   6387 H2          3.7662   23.1610   20.9405 HW      2092 WAT      0.417000
   6388 O          34.2169   18.7020   34.4296 OW      2093 WAT     -0.834000
   6389 H1         34.9363   18.1373   34.1470 HW      2093 WAT      0.417000
   6390 H2         33.5504   18.0965   34.7542 HW      2093 WAT      0.417000
   6391 O          26.8652   13.6580    0.6741 OW      2094 WAT     -0.834000
   6392 H1         27.6691   13.1750    0.4826 HW      2094 WAT      0.417000
   6393 H2         26.8742   13.7706    1.6246 HW      2094 WAT      0.417000
   6394 O          18.2914   28.3889   46.8759 OW      2095 WAT     -0.834000
   6395 H1         18.0104   29.0296   47.5292 HW      2095 WAT      0.417000
   6396 H2         17.5254   27.8305   46.7431 HW      2095 WAT      0.417000
   6397 O          22.7281    3.1560   34.9730 OW      2096 WAT     -0.834000
   6398 H1         21.7918    3.0936   34.7843 HW      2096 WAT      0.417000
   6399 H2         22.7713    3.5554   35.8418 HW      2096 WAT      0.417000
   6400 O          28.1300   29.8443   16.9483 OW      2097 WAT     -0.834000
   6401 H1         27.1790   29.9361   16.8897 HW      2097 WAT      0.417000
   6402 H2         28.2798   28.8989   16.9498 HW      2097 WAT      0.417000
   6403 O          10.5953   30.8830   44.2868 OW      2098 WAT     -0.834000
   6404 H1         11.5511   30.8386   44.2597 HW      2098 WAT      0.417000
   6405 H2         10.3071   30.0141   44.0073 HW      2098 WAT      0.417000
   6406 O          26.1984   27.6990   11.2398 OW      2099 WAT     -0.834000
   6407 H1         25.5680   27.0171   11.0078 HW      2099 WAT      0.417000
   6408 H2         25.6882   28.3372   11.7385 HW      2099 WAT      0.417000
   6409 O          -0.2027   24.5663    0.1265 OW      2100 WAT     -0.834000
   6410 H1          0.1553   24.5555   -0.7611 HW      2100 WAT      0.417000
   6411 H2          0.5563   24.7203    0.6891 HW      2100 WAT      0.417000
   6412 O          14.2143   11.3672   15.1697 OW      2101 WAT     -0.834000
   6413 H1         14.7685   12.1065   15.4198 HW      2101 WAT      0.417000
   6414 H2         14.3531   10.7194   15.8605 HW      2101 WAT      0.417000
   6415 O          14.5204    6.4634   30.6178 OW      2102 WAT     -0.834000
   6416 H1         14.3688    5.5347   30.4423 HW      2102 WAT      0.417000
   6417 H2         15.1963    6.4718   31.2956 HW      2102 WAT      0.417000
   6418 O          26.3107   35.6059   42.6649 OW      2103 WAT     -0.834000
   6419 H1         27.0817   36.1464   42.4924 HW      2103 WAT      0.417000
   6420 H2         25.6345   36.2303   42.9277 HW      2103 WAT      0.417000
   6421 O          34.6290   25.2961   45.0203 OW      2104 WAT     -0.834000
   6422 H1         35.1865   25.2959   44.2422 HW      2104 WAT      0.417000
   6423 H2         35.2322   25.4517   45.7471 HW      2104 WAT      0.417000
   6424 O          25.4855    3.4684   29.0848 OW      2105 WAT     -0.834000
   6425 H1         24.7406    3.6785   29.6480 HW      2105 WAT      0.417000
   6426 H2         26.2394    3.4690   29.6746 HW      2105 WAT      0.417000
   6427 O          14.3333   17.8751   22.8200 OW      2106 WAT     -0.834000
   6428 H1         15.0306   18.3089   23.3117 HW      2106 WAT      0.417000
   6429 H2         13.5833   17.8782   23.4147 HW      2106 WAT      0.417000
   6430 O          34.7256   33.1064   48.8400 OW      2107 WAT     -0.834000
   6431 H1         34.7583   33.0975   49.7966 HW      2107 WAT      0.417000
   6432 H2         34.3143   33.9429   48.6222 HW      2107 WAT      0.417000
   6433 O           4.0705    7.7701   28.0076 OW      2108 WAT     -0.834000
   6434 H1          5.0089    7.8429   27.8333 HW      2108 WAT      0.417000
   6435 H2          3.9301    8.3038   28.7897 HW      2108 WAT      0.417000
   6436 O          18.1030    6.8427   28.7861 OW      2109 WAT     -0.834000
   6437 H1         17.5065    7.2136   28.1358 HW      2109 WAT      0.417000
   6438 H2         17.9791    5.8964   28.7126 HW      2109 WAT      0.417000
   6439 O           2.6701   29.2340   40.7561 OW      2110 WAT     -0.834000
   6440 H1          3.1626   28.7613   40.0851 HW      2110 WAT      0.417000
   6441 H2          2.1041   28.5701   41.1500 HW      2110 WAT      0.417000
   6442 O          23.6667   20.9489   19.2998 OW      2111 WAT     -0.834000
   6443 H1         22.7505   20.9984   19.5725 HW      2111 WAT      0.417000
   6444 H2         23.6451   21.1125   18.3569 HW      2111 WAT      0.417000
   6445 O          12.9688    3.8922   22.5789 OW      2112 WAT     -0.834000
   6446 H1         12.3853    3.1627   22.3702 HW      2112 WAT      0.417000
   6447 H2         12.4551    4.6747   22.3789 HW      2112 WAT      0.417000
   6448 O          35.5447   27.8789    9.5205 OW      2113 WAT     -0.834000
   6449 H1         35.3767   27.4582   10.3637 HW      2113 WAT      0.417000
   6450 H2         35.4218   27.1817    8.8763 HW      2113 WAT      0.417000
   6451 O          33.6806   26.9439   48.3879 OW      2114 WAT     -0.834000
   6452 H1         33.5443   27.6148   47.7190 HW      2114 WAT      0.417000
   6453 H2         34.6133   26.7360   48.3321 HW      2114 WAT      0.417000
   6454 O          20.8666    3.1214   12.7574 OW      2115 WAT     -0.834000
   6455 H1         20.9482    3.2733   11.8159 HW      2115 WAT      0.417000
   6456 H2         20.1718    2.4676   12.8353 HW      2115 WAT      0.417000
   6457 O          29.3644    3.9580   17.4368 OW      2116 WAT     -0.834000
   6458 H1         28.7495    4.1754   18.1375 HW      2116 WAT      0.417000
   6459 H2         28.8149    3.8524   16.6602 HW      2116 WAT      0.417000
   6460 O           9.9613   18.1993   23.2184 OW      2117 WAT     -0.834000
   6461 H1          9.3990   17.5162   23.5838 HW      2117 WAT      0.417000
   6462 H2          9.3536   18.8783   22.9253 HW      2117 WAT      0.417000
   6463 O           3.4823   26.9923   21.4463 OW      2118 WAT     -0.834000
   6464 H1          3.6249   27.6128   20.7315 HW      2118 WAT      0.417000
   6465 H2          4.2160   27.1413   22.0427 HW      2118 WAT      0.417000
   6466 O          13.1319   12.1797   32.8507 OW      2119 WAT     -0.834000
   6467 H1         12.4192   11.7348   33.3094 HW      2119 WAT      0.417000
   6468 H2         12.9601   13.1114   32.9877 HW      2119 WAT      0.417000
   6469 O          15.6413   34.8513   26.3844 OW      2120 WAT     -0.834000
   6470 H1         14.8820   34.6451   26.9294 HW      2120 WAT      0.417000
   6471 H2         15.3898   35.6462   25.9141 HW      2120 WAT      0.417000
   6472 O           0.2281    1.4347   46.9593 OW      2121 WAT     -0.834000
   6473 H1         -0.2206    1.1231   46.1733 HW      2121 WAT      0.417000
   6474 H2          0.1109    0.7305   47.5970 HW      2121 WAT      0.417000
   6475 O          28.0483   32.1603    0.4083 OW      2122 WAT     -0.834000
   6476 H1         27.4982   32.8839    0.7084 HW      2122 WAT      0.417000
   6477 H2         28.8001   32.5860   -0.0039 HW      2122 WAT      0.417000
   6478 O          29.6316    7.1564   34.2130 OW      2123 WAT     -0.834000
   6479 H1         30.5275    7.4908   34.2563 HW      2123 WAT      0.417000
   6480 H2         29.0849    7.9409   34.1697 HW      2123 WAT      0.417000
   6481 O          34.3752   14.9387   40.2065 OW      2124 WAT     -0.834000
   6482 H1         34.2498   15.2197   39.3001 HW      2124 WAT      0.417000
   6483 H2         35.1706   15.3899   40.4892 HW      2124 WAT      0.417000
   6484 O          33.3726   22.6441   33.6068 OW      2125 WAT     -0.834000
   6485 H1         34.0518   22.3406   34.2091 HW      2125 WAT      0.417000
   6486 H2         33.7150   23.4653   33.2538 HW      2125 WAT      0.417000
   6487 O          18.2107   36.0640   23.7187 OW      2126 WAT     -0.834000
   6488 H1         18.3059   36.4225   22.8363 HW      2126 WAT      0.417000
   6489 H2         17.9862   36.8198   24.2614 HW      2126 WAT      0.417000
   6490 O          11.4642    5.1307   31.7426 OW      2127 WAT     -0.834000
   6491 H1         11.5865    5.3159   32.6737 HW      2127 WAT      0.417000
   6492 H2         10.6351    5.5544   31.5209 HW      2127 WAT      0.417000
   6493 O          24.3657   13.9895   25.0295 OW      2128 WAT     -0.834000
   6494 H1         23.9659   13.2519   24.5687 HW      2128 WAT      0.417000
   6495 H2         25.1333   14.2132   24.5031 HW      2128 WAT      0.417000
   6496 O          27.5409   35.8421   31.9165 OW      2129 WAT     -0.834000
   6497 H1         27.5015   35.0474   31.3844 HW      2129 WAT      0.417000
   6498 H2         26.7573   36.3338   31.6708 HW      2129 WAT      0.417000
   6499 O          21.5327    7.9544   11.2822 OW      2130 WAT     -0.834000
   6500 H1         20.7429    8.0812   11.8078 HW      2130 WAT      0.417000
   6501 H2         22.2534    8.0617   11.9030 HW      2130 WAT      0.417000
   6502 O          22.0221   10.0194    9.7661 OW      2131 WAT     -0.834000
   6503 H1         21.0881   10.2040    9.6669 HW      2131 WAT      0.417000
   6504 H2         22.0529    9.1732   10.2126 HW      2131 WAT      0.417000
   6505 O          21.8237   35.4584   14.9072 OW      2132 WAT     -0.834000
   6506 H1         22.7024   35.7885   14.7197 HW      2132 WAT      0.417000
   6507 H2         21.3636   35.5127   14.0696 HW      2132 WAT      0.417000
   6508 O          12.3673   25.1294   51.0229 OW      2133 WAT     -0.834000
   6509 H1         12.0863   24.3265   51.4619 HW      2133 WAT      0.417000
   6510 H2         13.2990   25.2021   51.2300 HW      2133 WAT      0.417000
   6511 O           8.5962    0.0223   32.1164 OW      2134 WAT     -0.834000
   6512 H1          8.7383    0.8140   31.5975 HW      2134 WAT      0.417000
   6513 H2          7.8010   -0.3647   31.7500 HW      2134 WAT      0.417000
   6514 O          36.3032   14.9639   28.2599 OW      2135 WAT     -0.834000
   6515 H1         35.4776   14.7675   27.8171 HW      2135 WAT      0.417000
   6516 H2         36.6740   15.6931   27.7630 HW      2135 WAT      0.417000
   6517 O          32.1553    3.0000   16.6853 OW      2136 WAT     -0.834000
   6518 H1         31.3043    3.0686   17.1180 HW      2136 WAT      0.417000
   6519 H2         32.0843    3.5765   15.9245 HW      2136 WAT      0.417000
   6520 O           5.2513   35.0100   11.5884 OW      2137 WAT     -0.834000
   6521 H1          5.0034   35.7942   11.0987 HW      2137 WAT      0.417000
   6522 H2          6.2042   35.0641   11.6608 HW      2137 WAT      0.417000
   6523 O          28.6197   21.8566   50.8121 OW      2138 WAT     -0.834000
   6524 H1         27.9169   21.2384   51.0128 HW      2138 WAT      0.417000
   6525 H2         29.0341   21.5010   50.0259 HW      2138 WAT      0.417000
   6526 O          22.3698   15.8999    7.9410 OW      2139 WAT     -0.834000
   6527 H1         22.0706   16.5343    7.2897 HW      2139 WAT      0.417000
   6528 H2         23.3244   15.9185    7.8726 HW      2139 WAT      0.417000
   6529 O           2.6944   16.9629    9.8644 OW      2140 WAT     -0.834000
   6530 H1          2.6266   16.4684   10.6812 HW      2140 WAT      0.417000
   6531 H2          2.5741   17.8757   10.1263 HW      2140 WAT      0.417000
   6532 O           9.5889   13.7959   25.0026 OW      2141 WAT     -0.834000
   6533 H1         10.0549   14.5840   25.2818 HW      2141 WAT      0.417000
   6534 H2         10.1847   13.3715   24.3852 HW      2141 WAT      0.417000
   6535 O          33.1487    0.9531    3.5925 OW      2142 WAT     -0.834000
   6536 H1         33.8483    0.7345    2.9769 HW      2142 WAT      0.417000
   6537 H2         33.6055    1.2724    4.3707 HW      2142 WAT      0.417000
   6538 O           0.9743    5.9935   47.7774 OW      2143 WAT     -0.834000
   6539 H1          1.7608    5.4480   47.7855 HW      2143 WAT      0.417000
   6540 H2          0.2510    5.3721   47.8608 HW      2143 WAT      0.417000
   6541 O          21.6270    1.8714   45.0488 OW      2144 WAT     -0.834000
   6542 H1         22.0667    2.1503   45.8520 HW      2144 WAT      0.417000
   6543 H2         21.5284    0.9243   45.1462 HW      2144 WAT      0.417000
   6544 O          17.0786   15.3033    6.2702 OW      2145 WAT     -0.834000
   6545 H1         17.9886   15.2796    5.9743 HW      2145 WAT      0.417000
   6546 H2         17.0896   15.8822    7.0325 HW      2145 WAT      0.417000
   6547 O          15.2217    6.7467   43.6127 OW      2146 WAT     -0.834000
   6548 H1         15.6008    7.0492   44.4380 HW      2146 WAT      0.417000
   6549 H2         15.9774    6.5196   43.0710 HW      2146 WAT      0.417000
   6550 O          16.1538    6.0762   46.9999 OW      2147 WAT     -0.834000
   6551 H1         15.3777    6.4618   47.4063 HW      2147 WAT      0.417000
   6552 H2         16.6599    6.8271   46.6899 HW      2147 WAT      0.417000
   6553 O          31.5034    5.7391    6.5501 OW      2148 WAT     -0.834000
   6554 H1         31.3852    4.8948    6.9854 HW      2148 WAT      0.417000
   6555 H2         32.1838    6.1783    7.0602 HW      2148 WAT      0.417000
   6556 O          11.9213    5.2841   50.2539 OW      2149 WAT     -0.834000
   6557 H1         12.1405    6.2012   50.4186 HW      2149 WAT      0.417000
   6558 H2         12.6953    4.9274   49.8181 HW      2149 WAT      0.417000
   6559 O          17.4059    9.5711   47.9125 OW      2150 WAT     -0.834000
   6560 H1         16.5788    9.8811   48.2815 HW      2150 WAT      0.417000
   6561 H2         17.9669   10.3466   47.8973 HW      2150 WAT      0.417000
   6562 O          29.5819   18.5522   40.3546 OW      2151 WAT     -0.834000
   6563 H1         29.0428   18.5684   41.1455 HW      2151 WAT      0.417000
   6564 H2         29.6448   17.6246   40.1267 HW      2151 WAT      0.417000
   6565 O           8.4387   23.6266    0.6271 OW      2152 WAT     -0.834000
   6566 H1          8.2303   24.4212    1.1185 HW      2152 WAT      0.417000
   6567 H2          8.3074   23.8703   -0.2892 HW      2152 WAT      0.417000
   6568 O           2.1394   14.4673   18.6631 OW      2153 WAT     -0.834000
   6569 H1          2.7106   14.2298   19.3936 HW      2153 WAT      0.417000
   6570 H2          1.8223   13.6298   18.3250 HW      2153 WAT      0.417000
   6571 O          36.0366    0.3698   34.1494 OW      2154 WAT     -0.834000
   6572 H1         36.1378   -0.1073   34.9730 HW      2154 WAT      0.417000
   6573 H2         36.7848    0.0947   33.6197 HW      2154 WAT      0.417000
   6574 O           3.8694   35.3432   22.5593 OW      2155 WAT     -0.834000
   6575 H1          3.9957   34.8623   23.3772 HW      2155 WAT      0.417000
   6576 H2          3.6565   36.2345   22.8358 HW      2155 WAT      0.417000
   6577 O          32.8072   35.1240   21.7353 OW      2156 WAT     -0.834000
   6578 H1         32.0777   35.5233   21.2614 HW      2156 WAT      0.417000
   6579 H2         33.5489   35.1913   21.1340 HW      2156 WAT      0.417000
   6580 O          21.8604   30.0800   28.0318 OW      2157 WAT     -0.834000
   6581 H1         21.9820   29.1313   27.9928 HW      2157 WAT      0.417000
   6582 H2         22.7489   30.4340   28.0692 HW      2157 WAT      0.417000
   6583 O          34.7195   23.3708   29.7486 OW      2158 WAT     -0.834000
   6584 H1         34.7963   23.2385   28.8037 HW      2158 WAT      0.417000
   6585 H2         34.4582   22.5155   30.0898 HW      2158 WAT      0.417000
   6586 O           3.5096   18.8276   25.0620 OW      2159 WAT     -0.834000
   6587 H1          2.8806   19.3655   25.5430 HW      2159 WAT      0.417000
   6588 H2          3.9160   19.4320   24.4408 HW      2159 WAT      0.417000
   6589 O          30.0153   27.9740   42.0478 OW      2160 WAT     -0.834000
   6590 H1         29.1928   27.9593   41.5585 HW      2160 WAT      0.417000
   6591 H2         29.8579   27.4010   42.7982 HW      2160 WAT      0.417000
   6592 O          21.0259   27.5940   46.5726 OW      2161 WAT     -0.834000
   6593 H1         20.1523   27.9843   46.5461 HW      2161 WAT      0.417000
   6594 H2         21.0561   27.1310   47.4098 HW      2161 WAT      0.417000
   6595 O          16.9502   23.2243   39.1996 OW      2162 WAT     -0.834000
   6596 H1         16.2165   22.9340   39.7416 HW      2162 WAT      0.417000
   6597 H2         17.2199   22.4400   38.7217 HW      2162 WAT      0.417000
   6598 O          30.3828   18.2762   49.8016 OW      2163 WAT     -0.834000
   6599 H1         30.4497   17.3471   49.5815 HW      2163 WAT      0.417000
   6600 H2         30.5386   18.3106   50.7454 HW      2163 WAT      0.417000
   6601 O          18.2589   12.2874   48.0900 OW      2164 WAT     -0.834000
   6602 H1         18.4793   13.1019   48.5419 HW      2164 WAT      0.417000
   6603 H2         17.3071   12.3171   47.9934 HW      2164 WAT      0.417000
   6604 O          20.3434    4.9356   14.8092 OW      2165 WAT     -0.834000
   6605 H1         21.0274    5.1821   15.4318 HW      2165 WAT      0.417000
   6606 H2         20.8143    4.5129   14.0910 HW      2165 WAT      0.417000
   6607 O          34.6252    2.2027   11.1544 OW      2166 WAT     -0.834000
   6608 H1         33.8264    2.1044   11.6727 HW      2166 WAT      0.417000
   6609 H2         35.2581    2.5877   11.7606 HW      2166 WAT      0.417000
   6610 O          27.1979   32.2824   24.8068 OW      2167 WAT     -0.834000
   6611 H1         26.7931   31.4364   24.9983 HW      2167 WAT      0.417000
   6612 H2         26.7645   32.5797   24.0069 HW      2167 WAT      0.417000
   6613 O          21.2396   30.7573   25.3912 OW      2168 WAT     -0.834000
   6614 H1         21.1793   30.5198   26.3165 HW      2168 WAT      0.417000
   6615 H2         21.1211   29.9306   24.9236 HW      2168 WAT      0.417000
   6616 O           2.6594   34.6653   37.5121 OW      2169 WAT     -0.834000
   6617 H1          3.5739   34.8299   37.7418 HW      2169 WAT      0.417000
   6618 H2          2.7001   33.9870   36.8379 HW      2169 WAT      0.417000
   6619 O          17.3090   34.3956    2.3857 OW      2170 WAT     -0.834000
   6620 H1         17.4423   34.6463    3.2999 HW      2170 WAT      0.417000
   6621 H2         17.9254   34.9398    1.8958 HW      2170 WAT      0.417000
   6622 O          16.7526   33.7336   23.8626 OW      2171 WAT     -0.834000
   6623 H1         16.4018   33.8653   24.7433 HW      2171 WAT      0.417000
   6624 H2         17.3040   34.5005   23.7072 HW      2171 WAT      0.417000
   6625 O           0.0990   18.1286   36.8971 OW      2172 WAT     -0.834000
   6626 H1          0.2183   17.8525   35.9883 HW      2172 WAT      0.417000
   6627 H2          0.8523   17.7616   37.3597 HW      2172 WAT      0.417000
   6628 O           8.5675   30.8161   14.6460 OW      2173 WAT     -0.834000
   6629 H1          8.9464   31.4303   14.0172 HW      2173 WAT      0.417000
   6630 H2          7.7291   30.5639   14.2591 HW      2173 WAT      0.417000
   6631 O          35.4732   19.1884   30.9223 OW      2174 WAT     -0.834000
   6632 H1         34.8446   18.5084   30.6799 HW      2174 WAT      0.417000
   6633 H2         36.2794   18.7108   31.1175 HW      2174 WAT      0.417000
   6634 O          12.0140    5.8141   34.3465 OW      2175 WAT     -0.834000
   6635 H1         12.5019    5.5640   35.1312 HW      2175 WAT      0.417000
   6636 H2         12.4216    6.6320   34.0617 HW      2175 WAT      0.417000
   6637 O          29.2118    0.4720   33.4452 OW      2176 WAT     -0.834000
   6638 H1         28.5863    0.1214   32.8112 HW      2176 WAT      0.417000
   6639 H2         28.7325    0.4828   34.2737 HW      2176 WAT      0.417000
   6640 O          11.2830   20.5802   37.0149 OW      2177 WAT     -0.834000
   6641 H1         12.0390   20.6515   37.5976 HW      2177 WAT      0.417000
   6642 H2         11.3739   21.3190   36.4131 HW      2177 WAT      0.417000
   6643 O          29.8811   21.6649    6.8166 OW      2178 WAT     -0.834000
   6644 H1         29.6520   21.6886    5.8876 HW      2178 WAT      0.417000
   6645 H2         30.7345   22.0959    6.8639 HW      2178 WAT      0.417000
   6646 O           2.4457   36.2530   13.8075 OW      2179 WAT     -0.834000
   6647 H1          1.7599   36.2727   14.4750 HW      2179 WAT      0.417000
   6648 H2          2.2663   37.0154   13.2572 HW      2179 WAT      0.417000
   6649 O          29.3848   14.3017    9.7511 OW      2180 WAT     -0.834000
   6650 H1         29.7764   13.7261    9.0942 HW      2180 WAT      0.417000
   6651 H2         29.1159   15.0779    9.2597 HW      2180 WAT      0.417000
   6652 O          19.9911    8.2061   44.7758 OW      2181 WAT     -0.834000
   6653 H1         20.6497    8.7816   44.3869 HW      2181 WAT      0.417000
   6654 H2         20.0254    8.4013   45.7123 HW      2181 WAT      0.417000
   6655 O          24.5244   36.0541   14.0593 OW      2182 WAT     -0.834000
   6656 H1         25.2701   35.5941   13.6738 HW      2182 WAT      0.417000
   6657 H2         24.7060   36.9804   13.9001 HW      2182 WAT      0.417000
   6658 O          20.2152    7.0724    8.6800 OW      2183 WAT     -0.834000
   6659 H1         19.9112    7.8831    8.2718 HW      2183 WAT      0.417000
   6660 H2         20.8285    7.3602    9.3563 HW      2183 WAT      0.417000
   6661 O           8.9022   34.8466   18.0839 OW      2184 WAT     -0.834000
   6662 H1          8.6069   34.0971   17.5669 HW      2184 WAT      0.417000
   6663 H2          8.3892   35.5834   17.7521 HW      2184 WAT      0.417000
   6664 O           4.9931   16.9943   38.7577 OW      2185 WAT     -0.834000
   6665 H1          5.3559   17.5771   39.4248 HW      2185 WAT      0.417000
   6666 H2          5.7370   16.7840   38.1933 HW      2185 WAT      0.417000
   6667 O          10.7630   18.2378   42.2844 OW      2186 WAT     -0.834000
   6668 H1         10.0523   18.7995   42.5935 HW      2186 WAT      0.417000
   6669 H2         10.7011   17.4523   42.8280 HW      2186 WAT      0.417000
   6670 O          11.7248   -0.1883   39.9164 OW      2187 WAT     -0.834000
   6671 H1         11.5517    0.4339   39.2099 HW      2187 WAT      0.417000
   6672 H2         12.5069    0.1531   40.3499 HW      2187 WAT      0.417000
   6673 O          19.9867   25.7758   42.9950 OW      2188 WAT     -0.834000
   6674 H1         19.5486   25.3262   42.2724 HW      2188 WAT      0.417000
   6675 H2         19.2761   26.0376   43.5803 HW      2188 WAT      0.417000
   6676 O          15.5621   21.3076   28.8901 OW      2189 WAT     -0.834000
   6677 H1         14.7364   21.1486   28.4328 HW      2189 WAT      0.417000
   6678 H2         15.4279   20.9374   29.7625 HW      2189 WAT      0.417000
   6679 O          12.3963   33.6666    5.6257 OW      2190 WAT     -0.834000
   6680 H1         13.2124   33.3405    6.0050 HW      2190 WAT      0.417000
   6681 H2         12.6471   33.9916    4.7611 HW      2190 WAT      0.417000
   6682 O          12.6433    4.1134    8.2444 OW      2191 WAT     -0.834000
   6683 H1         13.4861    4.4020    8.5946 HW      2191 WAT      0.417000
   6684 H2         12.8435    3.8080    7.3596 HW      2191 WAT      0.417000
   6685 O          28.7424   17.2407    2.7197 OW      2192 WAT     -0.834000
   6686 H1         29.3474   17.0021    3.4220 HW      2192 WAT      0.417000
   6687 H2         28.9263   16.6123    2.0215 HW      2192 WAT      0.417000
   6688 O          23.6454   34.8569   20.5160 OW      2193 WAT     -0.834000
   6689 H1         23.9462   35.4132   21.2346 HW      2193 WAT      0.417000
   6690 H2         23.1602   35.4492   19.9415 HW      2193 WAT      0.417000
   6691 O          11.9008   24.1753   47.1605 OW      2194 WAT     -0.834000
   6692 H1         11.9219   23.3080   46.7560 HW      2194 WAT      0.417000
   6693 H2         12.4399   24.0863   47.9463 HW      2194 WAT      0.417000
   6694 O          28.6698   20.7403   42.4156 OW      2195 WAT     -0.834000
   6695 H1         29.1740   21.1560   41.7161 HW      2195 WAT      0.417000
   6696 H2         28.0682   21.4220   42.7148 HW      2195 WAT      0.417000
   6697 O          27.2680   34.6641    2.7358 OW      2196 WAT     -0.834000
   6698 H1         28.1983   34.8835    2.7851 HW      2196 WAT      0.417000
   6699 H2         27.0424   34.3766    3.6205 HW      2196 WAT      0.417000
   6700 O          10.8281    3.8648   37.1467 OW      2197 WAT     -0.834000
   6701 H1         10.4454    3.1834   37.6994 HW      2197 WAT      0.417000
   6702 H2         11.4855    4.2830   37.7027 HW      2197 WAT      0.417000
   6703 O          13.2565   34.4392   20.2977 OW      2198 WAT     -0.834000
   6704 H1         13.4071   35.3845   20.3015 HW      2198 WAT      0.417000
   6705 H2         13.9604   34.0824   20.8394 HW      2198 WAT      0.417000
   6706 O          20.5595    7.6687   29.3932 OW      2199 WAT     -0.834000
   6707 H1         20.8912    6.8234   29.6959 HW      2199 WAT      0.417000
   6708 H2         19.6219    7.5257   29.2636 HW      2199 WAT      0.417000
   6709 O          27.5854   31.9827   27.7741 OW      2200 WAT     -0.834000
   6710 H1         27.4127   32.2846   26.8823 HW      2200 WAT      0.417000
   6711 H2         27.1600   31.1267   27.8238 HW      2200 WAT      0.417000
   6712 O          34.9118   35.8855   25.3735 OW      2201 WAT     -0.834000
   6713 H1         35.3189   35.1084   24.9906 HW      2201 WAT      0.417000
   6714 H2         34.1246   36.0272   24.8477 HW      2201 WAT      0.417000
   6715 O           1.8006   24.4367   32.2848 OW      2202 WAT     -0.834000
   6716 H1          1.3125   23.9591   31.6141 HW      2202 WAT      0.417000
   6717 H2          2.0236   25.2704   31.8707 HW      2202 WAT      0.417000
   6718 O          36.3500   36.1482   14.8859 OW      2203 WAT     -0.834000
   6719 H1         36.5467   35.3335   14.4234 HW      2203 WAT      0.417000
   6720 H2         35.4148   36.2881   14.7373 HW      2203 WAT      0.417000
   6721 O          26.5898   25.4026   42.1624 OW      2204 WAT     -0.834000
   6722 H1         27.0709   26.2284   42.1099 HW      2204 WAT      0.417000
   6723 H2         26.7912   25.0631   43.0344 HW      2204 WAT      0.417000
   6724 O          25.5287   29.8118    8.7905 OW      2205 WAT     -0.834000
   6725 H1         24.9001   29.6581    9.4958 HW      2205 WAT      0.417000
   6726 H2         25.5751   30.7649    8.7145 HW      2205 WAT      0.417000
   6727 O          19.9940    3.1886   28.0867 OW      2206 WAT     -0.834000
   6728 H1         20.3466    2.4186   27.6406 HW      2206 WAT      0.417000
   6729 H2         20.7659    3.6494   28.4154 HW      2206 WAT      0.417000
   6730 O          20.8716   12.2335   12.7884 OW      2207 WAT     -0.834000
   6731 H1         20.3727   11.5403   12.3562 HW      2207 WAT      0.417000
   6732 H2         21.7533   12.1572   12.4236 HW      2207 WAT      0.417000
   6733 O          31.2101   14.5882   25.2132 OW      2208 WAT     -0.834000
   6734 H1         30.6379   15.0231   24.5811 HW      2208 WAT      0.417000
   6735 H2         31.8431   14.1124   24.6755 HW      2208 WAT      0.417000
   6736 O          25.7780   24.6812   51.3250 OW      2209 WAT     -0.834000
   6737 H1         25.5630   23.9559   51.9115 HW      2209 WAT      0.417000
   6738 H2         25.8794   24.2722   50.4655 HW      2209 WAT      0.417000
   6739 O          15.7894    3.7586   48.8111 OW      2210 WAT     -0.834000
   6740 H1         16.5802    3.9508   49.3150 HW      2210 WAT      0.417000
   6741 H2         15.8554    4.3196   48.0384 HW      2210 WAT      0.417000
   6742 O          30.9882   25.1163   27.2703 OW      2211 WAT     -0.834000
   6743 H1         31.7502   24.8925   26.7359 HW      2211 WAT      0.417000
   6744 H2         31.0548   24.5433   28.0341 HW      2211 WAT      0.417000
   6745 O          28.2754    1.0553   10.1592 OW      2212 WAT     -0.834000
   6746 H1         27.8141    0.2184   10.2143 HW      2212 WAT      0.417000
   6747 H2         29.0992    0.9057   10.6231 HW      2212 WAT      0.417000
   6748 O          27.8323    1.1136   48.6080 OW      2213 WAT     -0.834000
   6749 H1         26.9802    1.3398   48.9807 HW      2213 WAT      0.417000
   6750 H2         27.9993    0.2226   48.9153 HW      2213 WAT      0.417000
   6751 O          31.9040   29.6181   47.9046 OW      2214 WAT     -0.834000
   6752 H1         32.7760   29.6054   47.5099 HW      2214 WAT      0.417000
   6753 H2         31.3985   28.9899   47.3888 HW      2214 WAT      0.417000
   6754 O          29.6670   14.0526    3.0610 OW      2215 WAT     -0.834000
   6755 H1         29.9099   14.4267    2.2141 HW      2215 WAT      0.417000
   6756 H2         30.1005   13.1993    3.0791 HW      2215 WAT      0.417000
   6757 O          35.1064   22.0273   43.7586 OW      2216 WAT     -0.834000
   6758 H1         35.1204   22.0438   44.7155 HW      2216 WAT      0.417000
   6759 H2         35.5440   22.8380   43.4986 HW      2216 WAT      0.417000
   6760 O           5.7408    8.2513   18.7210 OW      2217 WAT     -0.834000
   6761 H1          5.8134    7.5022   19.3126 HW      2217 WAT      0.417000
   6762 H2          4.8600    8.5932   18.8745 HW      2217 WAT      0.417000
   6763 O           8.0457   22.6902   26.7264 OW      2218 WAT     -0.834000
   6764 H1          7.6775   22.1151   26.0556 HW      2218 WAT      0.417000
   6765 H2          7.3941   22.6881   27.4276 HW      2218 WAT      0.417000
   6766 O          11.6481   24.7407   16.8009 OW      2219 WAT     -0.834000
   6767 H1         11.6996   24.4445   17.7096 HW      2219 WAT      0.417000
   6768 H2         11.3783   25.6570   16.8625 HW      2219 WAT      0.417000
   6769 O          31.5408   11.8812    2.4942 OW      2220 WAT     -0.834000
   6770 H1         31.2995   10.9832    2.7212 HW      2220 WAT      0.417000
   6771 H2         32.0655   11.7944    1.6983 HW      2220 WAT      0.417000
   6772 O          34.7486    1.6226    5.6811 OW      2221 WAT     -0.834000
   6773 H1         35.0361    2.1106    6.4528 HW      2221 WAT      0.417000
   6774 H2         35.4371    0.9731    5.5383 HW      2221 WAT      0.417000
   6775 O           9.4471   13.2483   35.2419 OW      2222 WAT     -0.834000
   6776 H1          9.4213   12.3192   35.4707 HW      2222 WAT      0.417000
   6777 H2          9.0023   13.6862   35.9676 HW      2222 WAT      0.417000
   6778 O          11.1623   20.6982    7.8505 OW      2223 WAT     -0.834000
   6779 H1         11.3631   19.9568    7.2792 HW      2223 WAT      0.417000
   6780 H2         10.3648   20.4368    8.3107 HW      2223 WAT      0.417000
   6781 O          31.6351   15.5496   28.0968 OW      2224 WAT     -0.834000
   6782 H1         31.1620   14.7898   27.7574 HW      2224 WAT      0.417000
   6783 H2         32.1242   15.2116   28.8470 HW      2224 WAT      0.417000
   6784 O          26.9557   16.2405   27.2908 OW      2225 WAT     -0.834000
   6785 H1         27.5356   17.0010   27.2514 HW      2225 WAT      0.417000
   6786 H2         26.5658   16.1912   26.4180 HW      2225 WAT      0.417000
   6787 O           0.3564   19.0203   40.5712 OW      2226 WAT     -0.834000
   6788 H1         -0.4248   19.5231   40.3405 HW      2226 WAT      0.417000
   6789 H2          0.4982   19.2100   41.4986 HW      2226 WAT      0.417000
   6790 O          26.4904   33.9952   17.6050 OW      2227 WAT     -0.834000
   6791 H1         25.5911   33.6915   17.7287 HW      2227 WAT      0.417000
   6792 H2         26.7121   33.7300   16.7124 HW      2227 WAT      0.417000
   6793 O          25.0943    8.1086    9.6781 OW      2228 WAT     -0.834000
   6794 H1         24.9401    8.4267    8.7886 HW      2228 WAT      0.417000
   6795 H2         25.4959    8.8499   10.1313 HW      2228 WAT      0.417000
   6796 O           8.3058   31.7763   38.4219 OW      2229 WAT     -0.834000
   6797 H1          8.3024   31.9683   39.3597 HW      2229 WAT      0.417000
   6798 H2          8.0053   32.5867   38.0105 HW      2229 WAT      0.417000
   6799 O           1.1200   33.9912   47.6705 OW      2230 WAT     -0.834000
   6800 H1          0.4749   34.6340   47.3758 HW      2230 WAT      0.417000
   6801 H2          1.7955   34.0015   46.9923 HW      2230 WAT      0.417000
   6802 O           0.4261    5.0335    5.8876 OW      2231 WAT     -0.834000
   6803 H1          1.3321    5.3256    5.9882 HW      2231 WAT      0.417000
   6804 H2         -0.0666    5.8359    5.7155 HW      2231 WAT      0.417000
@<TRIPOS>BOND
    1    17    20 1
    2    14    16 1
    3    14    17 1
    4    12    14 1
    5    12   129 1
    6     8    10 1
    7     8    12 1
    8     4     6 1
    9     4     8 1
   10     3    33 1
   11     1     3 1
   12     1     4 1
   13     1    16 1
   14    38    41 1
   15    35    37 1
   16    35    38 1
   17    33    35 1
   18    29    31 1
   19    29    33 1
   20    25    27 1
   21    25    29 1
   22    24    54 1
   23    22    24 1
   24    22    25 1
   25    22    37 1
   26    59    62 1
   27    56    58 1
   28    56    59 1
   29    54    56 1
   30    50    52 1
   31    50    54 1
   32    46    48 1
   33    46    50 1
   34    45    75 1
   35    43    45 1
   36    43    46 1
   37    43    58 1
   38    80    83 1
   39    77    79 1
   40    77    80 1
   41    75    77 1
   42    71    73 1
   43    71    75 1
   44    67    69 1
   45    67    71 1
   46    66    96 1
   47    64    66 1
   48    64    67 1
   49    64    79 1
   50   101   104 1
   51    98   100 1
   52    98   101 1
   53    96    98 1
   54    92    94 1
   55    92    96 1
   56    88    90 1
   57    88    92 1
   58    87   117 1
   59    85    87 1
   60    85    88 1
   61    85   100 1
   62   122   125 1
   63   119   121 1
   64   119   122 1
   65   117   119 1
   66   113   115 1
   67   113   117 1
   68   109   111 1
   69   109   113 1
   70   108   138 1
   71   106   108 1
   72   106   109 1
   73   106   121 1
   74   143   146 1
   75   140   142 1
   76   140   143 1
   77   138   140 1
   78   134   136 1
   79   134   138 1
   80   130   132 1
   81   130   134 1
   82   127   129 1
   83   127   130 1
   84   127   142 1
   85   159   160 1
   86   159   161 1
   87   155   157 1
   88   154   155 1
   89   154   159 1
   90   152   154 1
   91   150   152 1
   92   148   150 1
   93   148   157 1
   94    20    21 1
   95    17    18 1
   96    17    19 1
   97    14    15 1
   98    12    13 1
   99    10    11 1
  100     8     9 1
  101     6     7 1
  102     4     5 1
  103     1     2 1
  104    41    42 1
  105    38    39 1
  106    38    40 1
  107    35    36 1
  108    33    34 1
  109    31    32 1
  110    29    30 1
  111    27    28 1
  112    25    26 1
  113    22    23 1
  114    62    63 1
  115    59    60 1
  116    59    61 1
  117    56    57 1
  118    54    55 1
  119    52    53 1
  120    50    51 1
  121    48    49 1
  122    46    47 1
  123    43    44 1
  124    83    84 1
  125    80    81 1
  126    80    82 1
  127    77    78 1
  128    75    76 1
  129    73    74 1
  130    71    72 1
  131    69    70 1
  132    67    68 1
  133    64    65 1
  134   104   105 1
  135   101   102 1
  136   101   103 1
  137    98    99 1
  138    96    97 1
  139    94    95 1
  140    92    93 1
  141    90    91 1
  142    88    89 1
  143    85    86 1
  144   125   126 1
  145   122   123 1
  146   122   124 1
  147   119   120 1
  148   117   118 1
  149   115   116 1
  150   113   114 1
  151   111   112 1
  152   109   110 1
  153   106   107 1
  154   146   147 1
  155   143   144 1
  156   143   145 1
  157   140   141 1
  158   138   139 1
  159   136   137 1
  160   134   135 1
  161   132   133 1
  162   130   131 1
  163   127   128 1
  164   157   158 1
  165   155   156 1
  166   152   153 1
  167   150   151 1
  168   148   149 1
  169   176   175 1
  170   177   175 1
  171   177   176 1
  172   179   178 1
  173   180   178 1
  174   180   179 1
  175   182   181 1
  176   183   181 1
  177   183   182 1
  178   185   184 1
  179   186   184 1
  180   186   185 1
  181   188   187 1
  182   189   187 1
  183   189   188 1
  184   191   190 1
  185   192   190 1
  186   192   191 1
  187   194   193 1
  188   195   193 1
  189   195   194 1
  190   197   196 1
  191   198   196 1
  192   198   197 1
  193   200   199 1
  194   201   199 1
  195   201   200 1
  196   203   202 1
  197   204   202 1
  198   204   203 1
  199   206   205 1
  200   207   205 1
  201   207   206 1
  202   209   208 1
  203   210   208 1
  204   210   209 1
  205   212   211 1
  206   213   211 1
  207   213   212 1
  208   215   214 1
  209   216   214 1
  210   216   215 1
  211   218   217 1
  212   219   217 1
  213   219   218 1
  214   221   220 1
  215   222   220 1
  216   222   221 1
  217   224   223 1
  218   225   223 1
  219   225   224 1
  220   227   226 1
  221   228   226 1
  222   228   227 1
  223   230   229 1
  224   231   229 1
  225   231   230 1
  226   233   232 1
  227   234   232 1
  228   234   233 1
  229   236   235 1
  230   237   235 1
  231   237   236 1
  232   239   238 1
  233   240   238 1
  234   240   239 1
  235   242   241 1
  236   243   241 1
  237   243   242 1
  238   245   244 1
  239   246   244 1
  240   246   245 1
  241   248   247 1
  242   249   247 1
  243   249   248 1
  244   251   250 1
  245   252   250 1
  246   252   251 1
  247   254   253 1
  248   255   253 1
  249   255   254 1
  250   257   256 1
  251   258   256 1
  252   258   257 1
  253   260   259 1
  254   261   259 1
  255   261   260 1
  256   263   262 1
  257   264   262 1
  258   264   263 1
  259   266   265 1
  260   267   265 1
  261   267   266 1
  262   269   268 1
  263   270   268 1
  264   270   269 1
  265   272   271 1
  266   273   271 1
  267   273   272 1
  268   275   274 1
  269   276   274 1
  270   276   275 1
  271   278   277 1
  272   279   277 1
  273   279   278 1
  274   281   280 1
  275   282   280 1
  276   282   281 1
  277   284   283 1
  278   285   283 1
  279   285   284 1
  280   287   286 1
  281   288   286 1
  282   288   287 1
  283   290   289 1
  284   291   289 1
  285   291   290 1
  286   293   292 1
  287   294   292 1
  288   294   293 1
  289   296   295 1
  290   297   295 1
  291   297   296 1
  292   299   298 1
  293   300   298 1
  294   300   299 1
  295   302   301 1
  296   303   301 1
  297   303   302 1
  298   305   304 1
  299   306   304 1
  300   306   305 1
  301   308   307 1
  302   309   307 1
  303   309   308 1
  304   311   310 1
  305   312   310 1
  306   312   311 1
  307   314   313 1
  308   315   313 1
  309   315   314 1
  310   317   316 1
  311   318   316 1
  312   318   317 1
  313   320   319 1
  314   321   319 1
  315   321   320 1
  316   323   322 1
  317   324   322 1
  318   324   323 1
  319   326   325 1
  320   327   325 1
  321   327   326 1
  322   329   328 1
  323   330   328 1
  324   330   329 1
  325   332   331 1
  326   333   331 1
  327   333   332 1
  328   335   334 1
  329   336   334 1
  330   336   335 1
  331   338   337 1
  332   339   337 1
  333   339   338 1
  334   341   340 1
  335   342   340 1
  336   342   341 1
  337   344   343 1
  338   345   343 1
  339   345   344 1
  340   347   346 1
  341   348   346 1
  342   348   347 1
  343   350   349 1
  344   351   349 1
  345   351   350 1
  346   353   352 1
  347   354   352 1
  348   354   353 1
  349   356   355 1
  350   357   355 1
  351   357   356 1
  352   359   358 1
  353   360   358 1
  354   360   359 1
  355   362   361 1
  356   363   361 1
  357   363   362 1
  358   365   364 1
  359   366   364 1
  360   366   365 1
  361   368   367 1
  362   369   367 1
  363   369   368 1
  364   371   370 1
  365   372   370 1
  366   372   371 1
  367   374   373 1
  368   375   373 1
  369   375   374 1
  370   377   376 1
  371   378   376 1
  372   378   377 1
  373   380   379 1
  374   381   379 1
  375   381   380 1
  376   383   382 1
  377   384   382 1
  378   384   383 1
  379   386   385 1
  380   387   385 1
  381   387   386 1
  382   389   388 1
  383   390   388 1
  384   390   389 1
  385   392   391 1
  386   393   391 1
  387   393   392 1
  388   395   394 1
  389   396   394 1
  390   396   395 1
  391   398   397 1
  392   399   397 1
  393   399   398 1
  394   401   400 1
  395   402   400 1
  396   402   401 1
  397   404   403 1
  398   405   403 1
  399   405   404 1
  400   407   406 1
  401   408   406 1
  402   408   407 1
  403   410   409 1
  404   411   409 1
  405   411   410 1
  406   413   412 1
  407   414   412 1
  408   414   413 1
  409   416   415 1
  410   417   415 1
  411   417   416 1
  412   419   418 1
  413   420   418 1
  414   420   419 1
  415   422   421 1
  416   423   421 1
  417   423   422 1
  418   425   424 1
  419   426   424 1
  420   426   425 1
  421   428   427 1
  422   429   427 1
  423   429   428 1
  424   431   430 1
  425   432   430 1
  426   432   431 1
  427   434   433 1
  428   435   433 1
  429   435   434 1
  430   437   436 1
  431   438   436 1
  432   438   437 1
  433   440   439 1
  434   441   439 1
  435   441   440 1
  436   443   442 1
  437   444   442 1
  438   444   443 1
  439   446   445 1
  440   447   445 1
  441   447   446 1
  442   449   448 1
  443   450   448 1
  444   450   449 1
  445   452   451 1
  446   453   451 1
  447   453   452 1
  448   455   454 1
  449   456   454 1
  450   456   455 1
  451   458   457 1
  452   459   457 1
  453   459   458 1
  454   461   460 1
  455   462   460 1
  456   462   461 1
  457   464   463 1
  458   465   463 1
  459   465   464 1
  460   467   466 1
  461   468   466 1
  462   468   467 1
  463   470   469 1
  464   471   469 1
  465   471   470 1
  466   473   472 1
  467   474   472 1
  468   474   473 1
  469   476   475 1
  470   477   475 1
  471   477   476 1
  472   479   478 1
  473   480   478 1
  474   480   479 1
  475   482   481 1
  476   483   481 1
  477   483   482 1
  478   485   484 1
  479   486   484 1
  480   486   485 1
  481   488   487 1
  482   489   487 1
  483   489   488 1
  484   491   490 1
  485   492   490 1
  486   492   491 1
  487   494   493 1
  488   495   493 1
  489   495   494 1
  490   497   496 1
  491   498   496 1
  492   498   497 1
  493   500   499 1
  494   501   499 1
  495   501   500 1
  496   503   502 1
  497   504   502 1
  498   504   503 1
  499   506   505 1
  500   507   505 1
  501   507   506 1
  502   509   508 1
  503   510   508 1
  504   510   509 1
  505   512   511 1
  506   513   511 1
  507   513   512 1
  508   515   514 1
  509   516   514 1
  510   516   515 1
  511   518   517 1
  512   519   517 1
  513   519   518 1
  514   521   520 1
  515   522   520 1
  516   522   521 1
  517   524   523 1
  518   525   523 1
  519   525   524 1
  520   527   526 1
  521   528   526 1
  522   528   527 1
  523   530   529 1
  524   531   529 1
  525   531   530 1
  526   533   532 1
  527   534   532 1
  528   534   533 1
  529   536   535 1
  530   537   535 1
  531   537   536 1
  532   539   538 1
  533   540   538 1
  534   540   539 1
  535   542   541 1
  536   543   541 1
  537   543   542 1
  538   545   544 1
  539   546   544 1
  540   546   545 1
  541   548   547 1
  542   549   547 1
  543   549   548 1
  544   551   550 1
  545   552   550 1
  546   552   551 1
  547   554   553 1
  548   555   553 1
  549   555   554 1
  550   557   556 1
  551   558   556 1
  552   558   557 1
  553   560   559 1
  554   561   559 1
  555   561   560 1
  556   563   562 1
  557   564   562 1
  558   564   563 1
  559   566   565 1
  560   567   565 1
  561   567   566 1
  562   569   568 1
  563   570   568 1
  564   570   569 1
  565   572   571 1
  566   573   571 1
  567   573   572 1
  568   575   574 1
  569   576   574 1
  570   576   575 1
  571   578   577 1
  572   579   577 1
  573   579   578 1
  574   581   580 1
  575   582   580 1
  576   582   581 1
  577   584   583 1
  578   585   583 1
  579   585   584 1
  580   587   586 1
  581   588   586 1
  582   588   587 1
  583   590   589 1
  584   591   589 1
  585   591   590 1
  586   593   592 1
  587   594   592 1
  588   594   593 1
  589   596   595 1
  590   597   595 1
  591   597   596 1
  592   599   598 1
  593   600   598 1
  594   600   599 1
  595   602   601 1
  596   603   601 1
  597   603   602 1
  598   605   604 1
  599   606   604 1
  600   606   605 1
  601   608   607 1
  602   609   607 1
  603   609   608 1
  604   611   610 1
  605   612   610 1
  606   612   611 1
  607   614   613 1
  608   615   613 1
  609   615   614 1
  610   617   616 1
  611   618   616 1
  612   618   617 1
  613   620   619 1
  614   621   619 1
  615   621   620 1
  616   623   622 1
  617   624   622 1
  618   624   623 1
  619   626   625 1
  620   627   625 1
  621   627   626 1
  622   629   628 1
  623   630   628 1
  624   630   629 1
  625   632   631 1
  626   633   631 1
  627   633   632 1
  628   635   634 1
  629   636   634 1
  630   636   635 1
  631   638   637 1
  632   639   637 1
  633   639   638 1
  634   641   640 1
  635   642   640 1
  636   642   641 1
  637   644   643 1
  638   645   643 1
  639   645   644 1
  640   647   646 1
  641   648   646 1
  642   648   647 1
  643   650   649 1
  644   651   649 1
  645   651   650 1
  646   653   652 1
  647   654   652 1
  648   654   653 1
  649   656   655 1
  650   657   655 1
  651   657   656 1
  652   659   658 1
  653   660   658 1
  654   660   659 1
  655   662   661 1
  656   663   661 1
  657   663   662 1
  658   665   664 1
  659   666   664 1
  660   666   665 1
  661   668   667 1
  662   669   667 1
  663   669   668 1
  664   671   670 1
  665   672   670 1
  666   672   671 1
  667   674   673 1
  668   675   673 1
  669   675   674 1
  670   677   676 1
  671   678   676 1
  672   678   677 1
  673   680   679 1
  674   681   679 1
  675   681   680 1
  676   683   682 1
  677   684   682 1
  678   684   683 1
  679   686   685 1
  680   687   685 1
  681   687   686 1
  682   689   688 1
  683   690   688 1
  684   690   689 1
  685   692   691 1
  686   693   691 1
  687   693   692 1
  688   695   694 1
  689   696   694 1
  690   696   695 1
  691   698   697 1
  692   699   697 1
  693   699   698 1
  694   701   700 1
  695   702   700 1
  696   702   701 1
  697   704   703 1
  698   705   703 1
  699   705   704 1
  700   707   706 1
  701   708   706 1
  702   708   707 1
  703   710   709 1
  704   711   709 1
  705   711   710 1
  706   713   712 1
  707   714   712 1
  708   714   713 1
  709   716   715 1
  710   717   715 1
  711   717   716 1
  712   719   718 1
  713   720   718 1
  714   720   719 1
  715   722   721 1
  716   723   721 1
  717   723   722 1
  718   725   724 1
  719   726   724 1
  720   726   725 1
  721   728   727 1
  722   729   727 1
  723   729   728 1
  724   731   730 1
  725   732   730 1
  726   732   731 1
  727   734   733 1
  728   735   733 1
  729   735   734 1
  730   737   736 1
  731   738   736 1
  732   738   737 1
  733   740   739 1
  734   741   739 1
  735   741   740 1
  736   743   742 1
  737   744   742 1
  738   744   743 1
  739   746   745 1
  740   747   745 1
  741   747   746 1
  742   749   748 1
  743   750   748 1
  744   750   749 1
  745   752   751 1
  746   753   751 1
  747   753   752 1
  748   755   754 1
  749   756   754 1
  750   756   755 1
  751   758   757 1
  752   759   757 1
  753   759   758 1
  754   761   760 1
  755   762   760 1
  756   762   761 1
  757   764   763 1
  758   765   763 1
  759   765   764 1
  760   767   766 1
  761   768   766 1
  762   768   767 1
  763   770   769 1
  764   771   769 1
  765   771   770 1
  766   773   772 1
  767   774   772 1
  768   774   773 1
  769   776   775 1
  770   777   775 1
  771   777   776 1
  772   779   778 1
  773   780   778 1
  774   780   779 1
  775   782   781 1
  776   783   781 1
  777   783   782 1
  778   785   784 1
  779   786   784 1
  780   786   785 1
  781   788   787 1
  782   789   787 1
  783   789   788 1
  784   791   790 1
  785   792   790 1
  786   792   791 1
  787   794   793 1
  788   795   793 1
  789   795   794 1
  790   797   796 1
  791   798   796 1
  792   798   797 1
  793   800   799 1
  794   801   799 1
  795   801   800 1
  796   803   802 1
  797   804   802 1
  798   804   803 1
  799   806   805 1
  800   807   805 1
  801   807   806 1
  802   809   808 1
  803   810   808 1
  804   810   809 1
  805   812   811 1
  806   813   811 1
  807   813   812 1
  808   815   814 1
  809   816   814 1
  810   816   815 1
  811   818   817 1
  812   819   817 1
  813   819   818 1
  814   821   820 1
  815   822   820 1
  816   822   821 1
  817   824   823 1
  818   825   823 1
  819   825   824 1
  820   827   826 1
  821   828   826 1
  822   828   827 1
  823   830   829 1
  824   831   829 1
  825   831   830 1
  826   833   832 1
  827   834   832 1
  828   834   833 1
  829   836   835 1
  830   837   835 1
  831   837   836 1
  832   839   838 1
  833   840   838 1
  834   840   839 1
  835   842   841 1
  836   843   841 1
  837   843   842 1
  838   845   844 1
  839   846   844 1
  840   846   845 1
  841   848   847 1
  842   849   847 1
  843   849   848 1
  844   851   850 1
  845   852   850 1
  846   852   851 1
  847   854   853 1
  848   855   853 1
  849   855   854 1
  850   857   856 1
  851   858   856 1
  852   858   857 1
  853   860   859 1
  854   861   859 1
  855   861   860 1
  856   863   862 1
  857   864   862 1
  858   864   863 1
  859   866   865 1
  860   867   865 1
  861   867   866 1
  862   869   868 1
  863   870   868 1
  864   870   869 1
  865   872   871 1
  866   873   871 1
  867   873   872 1
  868   875   874 1
  869   876   874 1
  870   876   875 1
  871   878   877 1
  872   879   877 1
  873   879   878 1
  874   881   880 1
  875   882   880 1
  876   882   881 1
  877   884   883 1
  878   885   883 1
  879   885   884 1
  880   887   886 1
  881   888   886 1
  882   888   887 1
  883   890   889 1
  884   891   889 1
  885   891   890 1
  886   893   892 1
  887   894   892 1
  888   894   893 1
  889   896   895 1
  890   897   895 1
  891   897   896 1
  892   899   898 1
  893   900   898 1
  894   900   899 1
  895   902   901 1
  896   903   901 1
  897   903   902 1
  898   905   904 1
  899   906   904 1
  900   906   905 1
  901   908   907 1
  902   909   907 1
  903   909   908 1
  904   911   910 1
  905   912   910 1
  906   912   911 1
  907   914   913 1
  908   915   913 1
  909   915   914 1
  910   917   916 1
  911   918   916 1
  912   918   917 1
  913   920   919 1
  914   921   919 1
  915   921   920 1
  916   923   922 1
  917   924   922 1
  918   924   923 1
  919   926   925 1
  920   927   925 1
  921   927   926 1
  922   929   928 1
  923   930   928 1
  924   930   929 1
  925   932   931 1
  926   933   931 1
  927   933   932 1
  928   935   934 1
  929   936   934 1
  930   936   935 1
  931   938   937 1
  932   939   937 1
  933   939   938 1
  934   941   940 1
  935   942   940 1
  936   942   941 1
  937   944   943 1
  938   945   943 1
  939   945   944 1
  940   947   946 1
  941   948   946 1
  942   948   947 1
  943   950   949 1
  944   951   949 1
  945   951   950 1
  946   953   952 1
  947   954   952 1
  948   954   953 1
  949   956   955 1
  950   957   955 1
  951   957   956 1
  952   959   958 1
  953   960   958 1
  954   960   959 1
  955   962   961 1
  956   963   961 1
  957   963   962 1
  958   965   964 1
  959   966   964 1
  960   966   965 1
  961   968   967 1
  962   969   967 1
  963   969   968 1
  964   971   970 1
  965   972   970 1
  966   972   971 1
  967   974   973 1
  968   975   973 1
  969   975   974 1
  970   977   976 1
  971   978   976 1
  972   978   977 1
  973   980   979 1
  974   981   979 1
  975   981   980 1
  976   983   982 1
  977   984   982 1
  978   984   983 1
  979   986   985 1
  980   987   985 1
  981   987   986 1
  982   989   988 1
  983   990   988 1
  984   990   989 1
  985   992   991 1
  986   993   991 1
  987   993   992 1
  988   995   994 1
  989   996   994 1
  990   996   995 1
  991   998   997 1
  992   999   997 1
  993   999   998 1
  994  1001  1000 1
  995  1002  1000 1
  996  1002  1001 1
  997  1004  1003 1
  998  1005  1003 1
  999  1005  1004 1
 1000  1007  1006 1
 1001  1008  1006 1
 1002  1008  1007 1
 1003  1010  1009 1
 1004  1011  1009 1
 1005  1011  1010 1
 1006  1013  1012 1
 1007  1014  1012 1
 1008  1014  1013 1
 1009  1016  1015 1
 1010  1017  1015 1
 1011  1017  1016 1
 1012  1019  1018 1
 1013  1020  1018 1
 1014  1020  1019 1
 1015  1022  1021 1
 1016  1023  1021 1
 1017  1023  1022 1
 1018  1025  1024 1
 1019  1026  1024 1
 1020  1026  1025 1
 1021  1028  1027 1
 1022  1029  1027 1
 1023  1029  1028 1
 1024  1031  1030 1
 1025  1032  1030 1
 1026  1032  1031 1
 1027  1034  1033 1
 1028  1035  1033 1
 1029  1035  1034 1
 1030  1037  1036 1
 1031  1038  1036 1
 1032  1038  1037 1
 1033  1040  1039 1
 1034  1041  1039 1
 1035  1041  1040 1
 1036  1043  1042 1
 1037  1044  1042 1
 1038  1044  1043 1
 1039  1046  1045 1
 1040  1047  1045 1
 1041  1047  1046 1
 1042  1049  1048 1
 1043  1050  1048 1
 1044  1050  1049 1
 1045  1052  1051 1
 1046  1053  1051 1
 1047  1053  1052 1
 1048  1055  1054 1
 1049  1056  1054 1
 1050  1056  1055 1
 1051  1058  1057 1
 1052  1059  1057 1
 1053  1059  1058 1
 1054  1061  1060 1
 1055  1062  1060 1
 1056  1062  1061 1
 1057  1064  1063 1
 1058  1065  1063 1
 1059  1065  1064 1
 1060  1067  1066 1
 1061  1068  1066 1
 1062  1068  1067 1
 1063  1070  1069 1
 1064  1071  1069 1
 1065  1071  1070 1
 1066  1073  1072 1
 1067  1074  1072 1
 1068  1074  1073 1
 1069  1076  1075 1
 1070  1077  1075 1
 1071  1077  1076 1
 1072  1079  1078 1
 1073  1080  1078 1
 1074  1080  1079 1
 1075  1082  1081 1
 1076  1083  1081 1
 1077  1083  1082 1
 1078  1085  1084 1
 1079  1086  1084 1
 1080  1086  1085 1
 1081  1088  1087 1
 1082  1089  1087 1
 1083  1089  1088 1
 1084  1091  1090 1
 1085  1092  1090 1
 1086  1092  1091 1
 1087  1094  1093 1
 1088  1095  1093 1
 1089  1095  1094 1
 1090  1097  1096 1
 1091  1098  1096 1
 1092  1098  1097 1
 1093  1100  1099 1
 1094  1101  1099 1
 1095  1101  1100 1
 1096  1103  1102 1
 1097  1104  1102 1
 1098  1104  1103 1
 1099  1106  1105 1
 1100  1107  1105 1
 1101  1107  1106 1
 1102  1109  1108 1
 1103  1110  1108 1
 1104  1110  1109 1
 1105  1112  1111 1
 1106  1113  1111 1
 1107  1113  1112 1
 1108  1115  1114 1
 1109  1116  1114 1
 1110  1116  1115 1
 1111  1118  1117 1
 1112  1119  1117 1
 1113  1119  1118 1
 1114  1121  1120 1
 1115  1122  1120 1
 1116  1122  1121 1
 1117  1124  1123 1
 1118  1125  1123 1
 1119  1125  1124 1
 1120  1127  1126 1
 1121  1128  1126 1
 1122  1128  1127 1
 1123  1130  1129 1
 1124  1131  1129 1
 1125  1131  1130 1
 1126  1133  1132 1
 1127  1134  1132 1
 1128  1134  1133 1
 1129  1136  1135 1
 1130  1137  1135 1
 1131  1137  1136 1
 1132  1139  1138 1
 1133  1140  1138 1
 1134  1140  1139 1
 1135  1142  1141 1
 1136  1143  1141 1
 1137  1143  1142 1
 1138  1145  1144 1
 1139  1146  1144 1
 1140  1146  1145 1
 1141  1148  1147 1
 1142  1149  1147 1
 1143  1149  1148 1
 1144  1151  1150 1
 1145  1152  1150 1
 1146  1152  1151 1
 1147  1154  1153 1
 1148  1155  1153 1
 1149  1155  1154 1
 1150  1157  1156 1
 1151  1158  1156 1
 1152  1158  1157 1
 1153  1160  1159 1
 1154  1161  1159 1
 1155  1161  1160 1
 1156  1163  1162 1
 1157  1164  1162 1
 1158  1164  1163 1
 1159  1166  1165 1
 1160  1167  1165 1
 1161  1167  1166 1
 1162  1169  1168 1
 1163  1170  1168 1
 1164  1170  1169 1
 1165  1172  1171 1
 1166  1173  1171 1
 1167  1173  1172 1
 1168  1175  1174 1
 1169  1176  1174 1
 1170  1176  1175 1
 1171  1178  1177 1
 1172  1179  1177 1
 1173  1179  1178 1
 1174  1181  1180 1
 1175  1182  1180 1
 1176  1182  1181 1
 1177  1184  1183 1
 1178  1185  1183 1
 1179  1185  1184 1
 1180  1187  1186 1
 1181  1188  1186 1
 1182  1188  1187 1
 1183  1190  1189 1
 1184  1191  1189 1
 1185  1191  1190 1
 1186  1193  1192 1
 1187  1194  1192 1
 1188  1194  1193 1
 1189  1196  1195 1
 1190  1197  1195 1
 1191  1197  1196 1
 1192  1199  1198 1
 1193  1200  1198 1
 1194  1200  1199 1
 1195  1202  1201 1
 1196  1203  1201 1
 1197  1203  1202 1
 1198  1205  1204 1
 1199  1206  1204 1
 1200  1206  1205 1
 1201  1208  1207 1
 1202  1209  1207 1
 1203  1209  1208 1
 1204  1211  1210 1
 1205  1212  1210 1
 1206  1212  1211 1
 1207  1214  1213 1
 1208  1215  1213 1
 1209  1215  1214 1
 1210  1217  1216 1
 1211  1218  1216 1
 1212  1218  1217 1
 1213  1220  1219 1
 1214  1221  1219 1
 1215  1221  1220 1
 1216  1223  1222 1
 1217  1224  1222 1
 1218  1224  1223 1
 1219  1226  1225 1
 1220  1227  1225 1
 1221  1227  1226 1
 1222  1229  1228 1
 1223  1230  1228 1
 1224  1230  1229 1
 1225  1232  1231 1
 1226  1233  1231 1
 1227  1233  1232 1
 1228  1235  1234 1
 1229  1236  1234 1
 1230  1236  1235 1
 1231  1238  1237 1
 1232  1239  1237 1
 1233  1239  1238 1
 1234  1241  1240 1
 1235  1242  1240 1
 1236  1242  1241 1
 1237  1244  1243 1
 1238  1245  1243 1
 1239  1245  1244 1
 1240  1247  1246 1
 1241  1248  1246 1
 1242  1248  1247 1
 1243  1250  1249 1
 1244  1251  1249 1
 1245  1251  1250 1
 1246  1253  1252 1
 1247  1254  1252 1
 1248  1254  1253 1
 1249  1256  1255 1
 1250  1257  1255 1
 1251  1257  1256 1
 1252  1259  1258 1
 1253  1260  1258 1
 1254  1260  1259 1
 1255  1262  1261 1
 1256  1263  1261 1
 1257  1263  1262 1
 1258  1265  1264 1
 1259  1266  1264 1
 1260  1266  1265 1
 1261  1268  1267 1
 1262  1269  1267 1
 1263  1269  1268 1
 1264  1271  1270 1
 1265  1272  1270 1
 1266  1272  1271 1
 1267  1274  1273 1
 1268  1275  1273 1
 1269  1275  1274 1
 1270  1277  1276 1
 1271  1278  1276 1
 1272  1278  1277 1
 1273  1280  1279 1
 1274  1281  1279 1
 1275  1281  1280 1
 1276  1283  1282 1
 1277  1284  1282 1
 1278  1284  1283 1
 1279  1286  1285 1
 1280  1287  1285 1
 1281  1287  1286 1
 1282  1289  1288 1
 1283  1290  1288 1
 1284  1290  1289 1
 1285  1292  1291 1
 1286  1293  1291 1
 1287  1293  1292 1
 1288  1295  1294 1
 1289  1296  1294 1
 1290  1296  1295 1
 1291  1298  1297 1
 1292  1299  1297 1
 1293  1299  1298 1
 1294  1301  1300 1
 1295  1302  1300 1
 1296  1302  1301 1
 1297  1304  1303 1
 1298  1305  1303 1
 1299  1305  1304 1
 1300  1307  1306 1
 1301  1308  1306 1
 1302  1308  1307 1
 1303  1310  1309 1
 1304  1311  1309 1
 1305  1311  1310 1
 1306  1313  1312 1
 1307  1314  1312 1
 1308  1314  1313 1
 1309  1316  1315 1
 1310  1317  1315 1
 1311  1317  1316 1
 1312  1319  1318 1
 1313  1320  1318 1
 1314  1320  1319 1
 1315  1322  1321 1
 1316  1323  1321 1
 1317  1323  1322 1
 1318  1325  1324 1
 1319  1326  1324 1
 1320  1326  1325 1
 1321  1328  1327 1
 1322  1329  1327 1
 1323  1329  1328 1
 1324  1331  1330 1
 1325  1332  1330 1
 1326  1332  1331 1
 1327  1334  1333 1
 1328  1335  1333 1
 1329  1335  1334 1
 1330  1337  1336 1
 1331  1338  1336 1
 1332  1338  1337 1
 1333  1340  1339 1
 1334  1341  1339 1
 1335  1341  1340 1
 1336  1343  1342 1
 1337  1344  1342 1
 1338  1344  1343 1
 1339  1346  1345 1
 1340  1347  1345 1
 1341  1347  1346 1
 1342  1349  1348 1
 1343  1350  1348 1
 1344  1350  1349 1
 1345  1352  1351 1
 1346  1353  1351 1
 1347  1353  1352 1
 1348  1355  1354 1
 1349  1356  1354 1
 1350  1356  1355 1
 1351  1358  1357 1
 1352  1359  1357 1
 1353  1359  1358 1
 1354  1361  1360 1
 1355  1362  1360 1
 1356  1362  1361 1
 1357  1364  1363 1
 1358  1365  1363 1
 1359  1365  1364 1
 1360  1367  1366 1
 1361  1368  1366 1
 1362  1368  1367 1
 1363  1370  1369 1
 1364  1371  1369 1
 1365  1371  1370 1
 1366  1373  1372 1
 1367  1374  1372 1
 1368  1374  1373 1
 1369  1376  1375 1
 1370  1377  1375 1
 1371  1377  1376 1
 1372  1379  1378 1
 1373  1380  1378 1
 1374  1380  1379 1
 1375  1382  1381 1
 1376  1383  1381 1
 1377  1383  1382 1
 1378  1385  1384 1
 1379  1386  1384 1
 1380  1386  1385 1
 1381  1388  1387 1
 1382  1389  1387 1
 1383  1389  1388 1
 1384  1391  1390 1
 1385  1392  1390 1
 1386  1392  1391 1
 1387  1394  1393 1
 1388  1395  1393 1
 1389  1395  1394 1
 1390  1397  1396 1
 1391  1398  1396 1
 1392  1398  1397 1
 1393  1400  1399 1
 1394  1401  1399 1
 1395  1401  1400 1
 1396  1403  1402 1
 1397  1404  1402 1
 1398  1404  1403 1
 1399  1406  1405 1
 1400  1407  1405 1
 1401  1407  1406 1
 1402  1409  1408 1
 1403  1410  1408 1
 1404  1410  1409 1
 1405  1412  1411 1
 1406  1413  1411 1
 1407  1413  1412 1
 1408  1415  1414 1
 1409  1416  1414 1
 1410  1416  1415 1
 1411  1418  1417 1
 1412  1419  1417 1
 1413  1419  1418 1
 1414  1421  1420 1
 1415  1422  1420 1
 1416  1422  1421 1
 1417  1424  1423 1
 1418  1425  1423 1
 1419  1425  1424 1
 1420  1427  1426 1
 1421  1428  1426 1
 1422  1428  1427 1
 1423  1430  1429 1
 1424  1431  1429 1
 1425  1431  1430 1
 1426  1433  1432 1
 1427  1434  1432 1
 1428  1434  1433 1
 1429  1436  1435 1
 1430  1437  1435 1
 1431  1437  1436 1
 1432  1439  1438 1
 1433  1440  1438 1
 1434  1440  1439 1
 1435  1442  1441 1
 1436  1443  1441 1
 1437  1443  1442 1
 1438  1445  1444 1
 1439  1446  1444 1
 1440  1446  1445 1
 1441  1448  1447 1
 1442  1449  1447 1
 1443  1449  1448 1
 1444  1451  1450 1
 1445  1452  1450 1
 1446  1452  1451 1
 1447  1454  1453 1
 1448  1455  1453 1
 1449  1455  1454 1
 1450  1457  1456 1
 1451  1458  1456 1
 1452  1458  1457 1
 1453  1460  1459 1
 1454  1461  1459 1
 1455  1461  1460 1
 1456  1463  1462 1
 1457  1464  1462 1
 1458  1464  1463 1
 1459  1466  1465 1
 1460  1467  1465 1
 1461  1467  1466 1
 1462  1469  1468 1
 1463  1470  1468 1
 1464  1470  1469 1
 1465  1472  1471 1
 1466  1473  1471 1
 1467  1473  1472 1
 1468  1475  1474 1
 1469  1476  1474 1
 1470  1476  1475 1
 1471  1478  1477 1
 1472  1479  1477 1
 1473  1479  1478 1
 1474  1481  1480 1
 1475  1482  1480 1
 1476  1482  1481 1
 1477  1484  1483 1
 1478  1485  1483 1
 1479  1485  1484 1
 1480  1487  1486 1
 1481  1488  1486 1
 1482  1488  1487 1
 1483  1490  1489 1
 1484  1491  1489 1
 1485  1491  1490 1
 1486  1493  1492 1
 1487  1494  1492 1
 1488  1494  1493 1
 1489  1496  1495 1
 1490  1497  1495 1
 1491  1497  1496 1
 1492  1499  1498 1
 1493  1500  1498 1
 1494  1500  1499 1
 1495  1502  1501 1
 1496  1503  1501 1
 1497  1503  1502 1
 1498  1505  1504 1
 1499  1506  1504 1
 1500  1506  1505 1
 1501  1508  1507 1
 1502  1509  1507 1
 1503  1509  1508 1
 1504  1511  1510 1
 1505  1512  1510 1
 1506  1512  1511 1
 1507  1514  1513 1
 1508  1515  1513 1
 1509  1515  1514 1
 1510  1517  1516 1
 1511  1518  1516 1
 1512  1518  1517 1
 1513  1520  1519 1
 1514  1521  1519 1
 1515  1521  1520 1
 1516  1523  1522 1
 1517  1524  1522 1
 1518  1524  1523 1
 1519  1526  1525 1
 1520  1527  1525 1
 1521  1527  1526 1
 1522  1529  1528 1
 1523  1530  1528 1
 1524  1530  1529 1
 1525  1532  1531 1
 1526  1533  1531 1
 1527  1533  1532 1
 1528  1535  1534 1
 1529  1536  1534 1
 1530  1536  1535 1
 1531  1538  1537 1
 1532  1539  1537 1
 1533  1539  1538 1
 1534  1541  1540 1
 1535  1542  1540 1
 1536  1542  1541 1
 1537  1544  1543 1
 1538  1545  1543 1
 1539  1545  1544 1
 1540  1547  1546 1
 1541  1548  1546 1
 1542  1548  1547 1
 1543  1550  1549 1
 1544  1551  1549 1
 1545  1551  1550 1
 1546  1553  1552 1
 1547  1554  1552 1
 1548  1554  1553 1
 1549  1556  1555 1
 1550  1557  1555 1
 1551  1557  1556 1
 1552  1559  1558 1
 1553  1560  1558 1
 1554  1560  1559 1
 1555  1562  1561 1
 1556  1563  1561 1
 1557  1563  1562 1
 1558  1565  1564 1
 1559  1566  1564 1
 1560  1566  1565 1
 1561  1568  1567 1
 1562  1569  1567 1
 1563  1569  1568 1
 1564  1571  1570 1
 1565  1572  1570 1
 1566  1572  1571 1
 1567  1574  1573 1
 1568  1575  1573 1
 1569  1575  1574 1
 1570  1577  1576 1
 1571  1578  1576 1
 1572  1578  1577 1
 1573  1580  1579 1
 1574  1581  1579 1
 1575  1581  1580 1
 1576  1583  1582 1
 1577  1584  1582 1
 1578  1584  1583 1
 1579  1586  1585 1
 1580  1587  1585 1
 1581  1587  1586 1
 1582  1589  1588 1
 1583  1590  1588 1
 1584  1590  1589 1
 1585  1592  1591 1
 1586  1593  1591 1
 1587  1593  1592 1
 1588  1595  1594 1
 1589  1596  1594 1
 1590  1596  1595 1
 1591  1598  1597 1
 1592  1599  1597 1
 1593  1599  1598 1
 1594  1601  1600 1
 1595  1602  1600 1
 1596  1602  1601 1
 1597  1604  1603 1
 1598  1605  1603 1
 1599  1605  1604 1
 1600  1607  1606 1
 1601  1608  1606 1
 1602  1608  1607 1
 1603  1610  1609 1
 1604  1611  1609 1
 1605  1611  1610 1
 1606  1613  1612 1
 1607  1614  1612 1
 1608  1614  1613 1
 1609  1616  1615 1
 1610  1617  1615 1
 1611  1617  1616 1
 1612  1619  1618 1
 1613  1620  1618 1
 1614  1620  1619 1
 1615  1622  1621 1
 1616  1623  1621 1
 1617  1623  1622 1
 1618  1625  1624 1
 1619  1626  1624 1
 1620  1626  1625 1
 1621  1628  1627 1
 1622  1629  1627 1
 1623  1629  1628 1
 1624  1631  1630 1
 1625  1632  1630 1
 1626  1632  1631 1
 1627  1634  1633 1
 1628  1635  1633 1
 1629  1635  1634 1
 1630  1637  1636 1
 1631  1638  1636 1
 1632  1638  1637 1
 1633  1640  1639 1
 1634  1641  1639 1
 1635  1641  1640 1
 1636  1643  1642 1
 1637  1644  1642 1
 1638  1644  1643 1
 1639  1646  1645 1
 1640  1647  1645 1
 1641  1647  1646 1
 1642  1649  1648 1
 1643  1650  1648 1
 1644  1650  1649 1
 1645  1652  1651 1
 1646  1653  1651 1
 1647  1653  1652 1
 1648  1655  1654 1
 1649  1656  1654 1
 1650  1656  1655 1
 1651  1658  1657 1
 1652  1659  1657 1
 1653  1659  1658 1
 1654  1661  1660 1
 1655  1662  1660 1
 1656  1662  1661 1
 1657  1664  1663 1
 1658  1665  1663 1
 1659  1665  1664 1
 1660  1667  1666 1
 1661  1668  1666 1
 1662  1668  1667 1
 1663  1670  1669 1
 1664  1671  1669 1
 1665  1671  1670 1
 1666  1673  1672 1
 1667  1674  1672 1
 1668  1674  1673 1
 1669  1676  1675 1
 1670  1677  1675 1
 1671  1677  1676 1
 1672  1679  1678 1
 1673  1680  1678 1
 1674  1680  1679 1
 1675  1682  1681 1
 1676  1683  1681 1
 1677  1683  1682 1
 1678  1685  1684 1
 1679  1686  1684 1
 1680  1686  1685 1
 1681  1688  1687 1
 1682  1689  1687 1
 1683  1689  1688 1
 1684  1691  1690 1
 1685  1692  1690 1
 1686  1692  1691 1
 1687  1694  1693 1
 1688  1695  1693 1
 1689  1695  1694 1
 1690  1697  1696 1
 1691  1698  1696 1
 1692  1698  1697 1
 1693  1700  1699 1
 1694  1701  1699 1
 1695  1701  1700 1
 1696  1703  1702 1
 1697  1704  1702 1
 1698  1704  1703 1
 1699  1706  1705 1
 1700  1707  1705 1
 1701  1707  1706 1
 1702  1709  1708 1
 1703  1710  1708 1
 1704  1710  1709 1
 1705  1712  1711 1
 1706  1713  1711 1
 1707  1713  1712 1
 1708  1715  1714 1
 1709  1716  1714 1
 1710  1716  1715 1
 1711  1718  1717 1
 1712  1719  1717 1
 1713  1719  1718 1
 1714  1721  1720 1
 1715  1722  1720 1
 1716  1722  1721 1
 1717  1724  1723 1
 1718  1725  1723 1
 1719  1725  1724 1
 1720  1727  1726 1
 1721  1728  1726 1
 1722  1728  1727 1
 1723  1730  1729 1
 1724  1731  1729 1
 1725  1731  1730 1
 1726  1733  1732 1
 1727  1734  1732 1
 1728  1734  1733 1
 1729  1736  1735 1
 1730  1737  1735 1
 1731  1737  1736 1
 1732  1739  1738 1
 1733  1740  1738 1
 1734  1740  1739 1
 1735  1742  1741 1
 1736  1743  1741 1
 1737  1743  1742 1
 1738  1745  1744 1
 1739  1746  1744 1
 1740  1746  1745 1
 1741  1748  1747 1
 1742  1749  1747 1
 1743  1749  1748 1
 1744  1751  1750 1
 1745  1752  1750 1
 1746  1752  1751 1
 1747  1754  1753 1
 1748  1755  1753 1
 1749  1755  1754 1
 1750  1757  1756 1
 1751  1758  1756 1
 1752  1758  1757 1
 1753  1760  1759 1
 1754  1761  1759 1
 1755  1761  1760 1
 1756  1763  1762 1
 1757  1764  1762 1
 1758  1764  1763 1
 1759  1766  1765 1
 1760  1767  1765 1
 1761  1767  1766 1
 1762  1769  1768 1
 1763  1770  1768 1
 1764  1770  1769 1
 1765  1772  1771 1
 1766  1773  1771 1
 1767  1773  1772 1
 1768  1775  1774 1
 1769  1776  1774 1
 1770  1776  1775 1
 1771  1778  1777 1
 1772  1779  1777 1
 1773  1779  1778 1
 1774  1781  1780 1
 1775  1782  1780 1
 1776  1782  1781 1
 1777  1784  1783 1
 1778  1785  1783 1
 1779  1785  1784 1
 1780  1787  1786 1
 1781  1788  1786 1
 1782  1788  1787 1
 1783  1790  1789 1
 1784  1791  1789 1
 1785  1791  1790 1
 1786  1793  1792 1
 1787  1794  1792 1
 1788  1794  1793 1
 1789  1796  1795 1
 1790  1797  1795 1
 1791  1797  1796 1
 1792  1799  1798 1
 1793  1800  1798 1
 1794  1800  1799 1
 1795  1802  1801 1
 1796  1803  1801 1
 1797  1803  1802 1
 1798  1805  1804 1
 1799  1806  1804 1
 1800  1806  1805 1
 1801  1808  1807 1
 1802  1809  1807 1
 1803  1809  1808 1
 1804  1811  1810 1
 1805  1812  1810 1
 1806  1812  1811 1
 1807  1814  1813 1
 1808  1815  1813 1
 1809  1815  1814 1
 1810  1817  1816 1
 1811  1818  1816 1
 1812  1818  1817 1
 1813  1820  1819 1
 1814  1821  1819 1
 1815  1821  1820 1
 1816  1823  1822 1
 1817  1824  1822 1
 1818  1824  1823 1
 1819  1826  1825 1
 1820  1827  1825 1
 1821  1827  1826 1
 1822  1829  1828 1
 1823  1830  1828 1
 1824  1830  1829 1
 1825  1832  1831 1
 1826  1833  1831 1
 1827  1833  1832 1
 1828  1835  1834 1
 1829  1836  1834 1
 1830  1836  1835 1
 1831  1838  1837 1
 1832  1839  1837 1
 1833  1839  1838 1
 1834  1841  1840 1
 1835  1842  1840 1
 1836  1842  1841 1
 1837  1844  1843 1
 1838  1845  1843 1
 1839  1845  1844 1
 1840  1847  1846 1
 1841  1848  1846 1
 1842  1848  1847 1
 1843  1850  1849 1
 1844  1851  1849 1
 1845  1851  1850 1
 1846  1853  1852 1
 1847  1854  1852 1
 1848  1854  1853 1
 1849  1856  1855 1
 1850  1857  1855 1
 1851  1857  1856 1
 1852  1859  1858 1
 1853  1860  1858 1
 1854  1860  1859 1
 1855  1862  1861 1
 1856  1863  1861 1
 1857  1863  1862 1
 1858  1865  1864 1
 1859  1866  1864 1
 1860  1866  1865 1
 1861  1868  1867 1
 1862  1869  1867 1
 1863  1869  1868 1
 1864  1871  1870 1
 1865  1872  1870 1
 1866  1872  1871 1
 1867  1874  1873 1
 1868  1875  1873 1
 1869  1875  1874 1
 1870  1877  1876 1
 1871  1878  1876 1
 1872  1878  1877 1
 1873  1880  1879 1
 1874  1881  1879 1
 1875  1881  1880 1
 1876  1883  1882 1
 1877  1884  1882 1
 1878  1884  1883 1
 1879  1886  1885 1
 1880  1887  1885 1
 1881  1887  1886 1
 1882  1889  1888 1
 1883  1890  1888 1
 1884  1890  1889 1
 1885  1892  1891 1
 1886  1893  1891 1
 1887  1893  1892 1
 1888  1895  1894 1
 1889  1896  1894 1
 1890  1896  1895 1
 1891  1898  1897 1
 1892  1899  1897 1
 1893  1899  1898 1
 1894  1901  1900 1
 1895  1902  1900 1
 1896  1902  1901 1
 1897  1904  1903 1
 1898  1905  1903 1
 1899  1905  1904 1
 1900  1907  1906 1
 1901  1908  1906 1
 1902  1908  1907 1
 1903  1910  1909 1
 1904  1911  1909 1
 1905  1911  1910 1
 1906  1913  1912 1
 1907  1914  1912 1
 1908  1914  1913 1
 1909  1916  1915 1
 1910  1917  1915 1
 1911  1917  1916 1
 1912  1919  1918 1
 1913  1920  1918 1
 1914  1920  1919 1
 1915  1922  1921 1
 1916  1923  1921 1
 1917  1923  1922 1
 1918  1925  1924 1
 1919  1926  1924 1
 1920  1926  1925 1
 1921  1928  1927 1
 1922  1929  1927 1
 1923  1929  1928 1
 1924  1931  1930 1
 1925  1932  1930 1
 1926  1932  1931 1
 1927  1934  1933 1
 1928  1935  1933 1
 1929  1935  1934 1
 1930  1937  1936 1
 1931  1938  1936 1
 1932  1938  1937 1
 1933  1940  1939 1
 1934  1941  1939 1
 1935  1941  1940 1
 1936  1943  1942 1
 1937  1944  1942 1
 1938  1944  1943 1
 1939  1946  1945 1
 1940  1947  1945 1
 1941  1947  1946 1
 1942  1949  1948 1
 1943  1950  1948 1
 1944  1950  1949 1
 1945  1952  1951 1
 1946  1953  1951 1
 1947  1953  1952 1
 1948  1955  1954 1
 1949  1956  1954 1
 1950  1956  1955 1
 1951  1958  1957 1
 1952  1959  1957 1
 1953  1959  1958 1
 1954  1961  1960 1
 1955  1962  1960 1
 1956  1962  1961 1
 1957  1964  1963 1
 1958  1965  1963 1
 1959  1965  1964 1
 1960  1967  1966 1
 1961  1968  1966 1
 1962  1968  1967 1
 1963  1970  1969 1
 1964  1971  1969 1
 1965  1971  1970 1
 1966  1973  1972 1
 1967  1974  1972 1
 1968  1974  1973 1
 1969  1976  1975 1
 1970  1977  1975 1
 1971  1977  1976 1
 1972  1979  1978 1
 1973  1980  1978 1
 1974  1980  1979 1
 1975  1982  1981 1
 1976  1983  1981 1
 1977  1983  1982 1
 1978  1985  1984 1
 1979  1986  1984 1
 1980  1986  1985 1
 1981  1988  1987 1
 1982  1989  1987 1
 1983  1989  1988 1
 1984  1991  1990 1
 1985  1992  1990 1
 1986  1992  1991 1
 1987  1994  1993 1
 1988  1995  1993 1
 1989  1995  1994 1
 1990  1997  1996 1
 1991  1998  1996 1
 1992  1998  1997 1
 1993  2000  1999 1
 1994  2001  1999 1
 1995  2001  2000 1
 1996  2003  2002 1
 1997  2004  2002 1
 1998  2004  2003 1
 1999  2006  2005 1
 2000  2007  2005 1
 2001  2007  2006 1
 2002  2009  2008 1
 2003  2010  2008 1
 2004  2010  2009 1
 2005  2012  2011 1
 2006  2013  2011 1
 2007  2013  2012 1
 2008  2015  2014 1
 2009  2016  2014 1
 2010  2016  2015 1
 2011  2018  2017 1
 2012  2019  2017 1
 2013  2019  2018 1
 2014  2021  2020 1
 2015  2022  2020 1
 2016  2022  2021 1
 2017  2024  2023 1
 2018  2025  2023 1
 2019  2025  2024 1
 2020  2027  2026 1
 2021  2028  2026 1
 2022  2028  2027 1
 2023  2030  2029 1
 2024  2031  2029 1
 2025  2031  2030 1
 2026  2033  2032 1
 2027  2034  2032 1
 2028  2034  2033 1
 2029  2036  2035 1
 2030  2037  2035 1
 2031  2037  2036 1
 2032  2039  2038 1
 2033  2040  2038 1
 2034  2040  2039 1
 2035  2042  2041 1
 2036  2043  2041 1
 2037  2043  2042 1
 2038  2045  2044 1
 2039  2046  2044 1
 2040  2046  2045 1
 2041  2048  2047 1
 2042  2049  2047 1
 2043  2049  2048 1
 2044  2051  2050 1
 2045  2052  2050 1
 2046  2052  2051 1
 2047  2054  2053 1
 2048  2055  2053 1
 2049  2055  2054 1
 2050  2057  2056 1
 2051  2058  2056 1
 2052  2058  2057 1
 2053  2060  2059 1
 2054  2061  2059 1
 2055  2061  2060 1
 2056  2063  2062 1
 2057  2064  2062 1
 2058  2064  2063 1
 2059  2066  2065 1
 2060  2067  2065 1
 2061  2067  2066 1
 2062  2069  2068 1
 2063  2070  2068 1
 2064  2070  2069 1
 2065  2072  2071 1
 2066  2073  2071 1
 2067  2073  2072 1
 2068  2075  2074 1
 2069  2076  2074 1
 2070  2076  2075 1
 2071  2078  2077 1
 2072  2079  2077 1
 2073  2079  2078 1
 2074  2081  2080 1
 2075  2082  2080 1
 2076  2082  2081 1
 2077  2084  2083 1
 2078  2085  2083 1
 2079  2085  2084 1
 2080  2087  2086 1
 2081  2088  2086 1
 2082  2088  2087 1
 2083  2090  2089 1
 2084  2091  2089 1
 2085  2091  2090 1
 2086  2093  2092 1
 2087  2094  2092 1
 2088  2094  2093 1
 2089  2096  2095 1
 2090  2097  2095 1
 2091  2097  2096 1
 2092  2099  2098 1
 2093  2100  2098 1
 2094  2100  2099 1
 2095  2102  2101 1
 2096  2103  2101 1
 2097  2103  2102 1
 2098  2105  2104 1
 2099  2106  2104 1
 2100  2106  2105 1
 2101  2108  2107 1
 2102  2109  2107 1
 2103  2109  2108 1
 2104  2111  2110 1
 2105  2112  2110 1
 2106  2112  2111 1
 2107  2114  2113 1
 2108  2115  2113 1
 2109  2115  2114 1
 2110  2117  2116 1
 2111  2118  2116 1
 2112  2118  2117 1
 2113  2120  2119 1
 2114  2121  2119 1
 2115  2121  2120 1
 2116  2123  2122 1
 2117  2124  2122 1
 2118  2124  2123 1
 2119  2126  2125 1
 2120  2127  2125 1
 2121  2127  2126 1
 2122  2129  2128 1
 2123  2130  2128 1
 2124  2130  2129 1
 2125  2132  2131 1
 2126  2133  2131 1
 2127  2133  2132 1
 2128  2135  2134 1
 2129  2136  2134 1
 2130  2136  2135 1
 2131  2138  2137 1
 2132  2139  2137 1
 2133  2139  2138 1
 2134  2141  2140 1
 2135  2142  2140 1
 2136  2142  2141 1
 2137  2144  2143 1
 2138  2145  2143 1
 2139  2145  2144 1
 2140  2147  2146 1
 2141  2148  2146 1
 2142  2148  2147 1
 2143  2150  2149 1
 2144  2151  2149 1
 2145  2151  2150 1
 2146  2153  2152 1
 2147  2154  2152 1
 2148  2154  2153 1
 2149  2156  2155 1
 2150  2157  2155 1
 2151  2157  2156 1
 2152  2159  2158 1
 2153  2160  2158 1
 2154  2160  2159 1
 2155  2162  2161 1
 2156  2163  2161 1
 2157  2163  2162 1
 2158  2165  2164 1
 2159  2166  2164 1
 2160  2166  2165 1
 2161  2168  2167 1
 2162  2169  2167 1
 2163  2169  2168 1
 2164  2171  2170 1
 2165  2172  2170 1
 2166  2172  2171 1
 2167  2174  2173 1
 2168  2175  2173 1
 2169  2175  2174 1
 2170  2177  2176 1
 2171  2178  2176 1
 2172  2178  2177 1
 2173  2180  2179 1
 2174  2181  2179 1
 2175  2181  2180 1
 2176  2183  2182 1
 2177  2184  2182 1
 2178  2184  2183 1
 2179  2186  2185 1
 2180  2187  2185 1
 2181  2187  2186 1
 2182  2189  2188 1
 2183  2190  2188 1
 2184  2190  2189 1
 2185  2192  2191 1
 2186  2193  2191 1
 2187  2193  2192 1
 2188  2195  2194 1
 2189  2196  2194 1
 2190  2196  2195 1
 2191  2198  2197 1
 2192  2199  2197 1
 2193  2199  2198 1
 2194  2201  2200 1
 2195  2202  2200 1
 2196  2202  2201 1
 2197  2204  2203 1
 2198  2205  2203 1
 2199  2205  2204 1
 2200  2207  2206 1
 2201  2208  2206 1
 2202  2208  2207 1
 2203  2210  2209 1
 2204  2211  2209 1
 2205  2211  2210 1
 2206  2213  2212 1
 2207  2214  2212 1
 2208  2214  2213 1
 2209  2216  2215 1
 2210  2217  2215 1
 2211  2217  2216 1
 2212  2219  2218 1
 2213  2220  2218 1
 2214  2220  2219 1
 2215  2222  2221 1
 2216  2223  2221 1
 2217  2223  2222 1
 2218  2225  2224 1
 2219  2226  2224 1
 2220  2226  2225 1
 2221  2228  2227 1
 2222  2229  2227 1
 2223  2229  2228 1
 2224  2231  2230 1
 2225  2232  2230 1
 2226  2232  2231 1
 2227  2234  2233 1
 2228  2235  2233 1
 2229  2235  2234 1
 2230  2237  2236 1
 2231  2238  2236 1
 2232  2238  2237 1
 2233  2240  2239 1
 2234  2241  2239 1
 2235  2241  2240 1
 2236  2243  2242 1
 2237  2244  2242 1
 2238  2244  2243 1
 2239  2246  2245 1
 2240  2247  2245 1
 2241  2247  2246 1
 2242  2249  2248 1
 2243  2250  2248 1
 2244  2250  2249 1
 2245  2252  2251 1
 2246  2253  2251 1
 2247  2253  2252 1
 2248  2255  2254 1
 2249  2256  2254 1
 2250  2256  2255 1
 2251  2258  2257 1
 2252  2259  2257 1
 2253  2259  2258 1
 2254  2261  2260 1
 2255  2262  2260 1
 2256  2262  2261 1
 2257  2264  2263 1
 2258  2265  2263 1
 2259  2265  2264 1
 2260  2267  2266 1
 2261  2268  2266 1
 2262  2268  2267 1
 2263  2270  2269 1
 2264  2271  2269 1
 2265  2271  2270 1
 2266  2273  2272 1
 2267  2274  2272 1
 2268  2274  2273 1
 2269  2276  2275 1
 2270  2277  2275 1
 2271  2277  2276 1
 2272  2279  2278 1
 2273  2280  2278 1
 2274  2280  2279 1
 2275  2282  2281 1
 2276  2283  2281 1
 2277  2283  2282 1
 2278  2285  2284 1
 2279  2286  2284 1
 2280  2286  2285 1
 2281  2288  2287 1
 2282  2289  2287 1
 2283  2289  2288 1
 2284  2291  2290 1
 2285  2292  2290 1
 2286  2292  2291 1
 2287  2294  2293 1
 2288  2295  2293 1
 2289  2295  2294 1
 2290  2297  2296 1
 2291  2298  2296 1
 2292  2298  2297 1
 2293  2300  2299 1
 2294  2301  2299 1
 2295  2301  2300 1
 2296  2303  2302 1
 2297  2304  2302 1
 2298  2304  2303 1
 2299  2306  2305 1
 2300  2307  2305 1
 2301  2307  2306 1
 2302  2309  2308 1
 2303  2310  2308 1
 2304  2310  2309 1
 2305  2312  2311 1
 2306  2313  2311 1
 2307  2313  2312 1
 2308  2315  2314 1
 2309  2316  2314 1
 2310  2316  2315 1
 2311  2318  2317 1
 2312  2319  2317 1
 2313  2319  2318 1
 2314  2321  2320 1
 2315  2322  2320 1
 2316  2322  2321 1
 2317  2324  2323 1
 2318  2325  2323 1
 2319  2325  2324 1
 2320  2327  2326 1
 2321  2328  2326 1
 2322  2328  2327 1
 2323  2330  2329 1
 2324  2331  2329 1
 2325  2331  2330 1
 2326  2333  2332 1
 2327  2334  2332 1
 2328  2334  2333 1
 2329  2336  2335 1
 2330  2337  2335 1
 2331  2337  2336 1
 2332  2339  2338 1
 2333  2340  2338 1
 2334  2340  2339 1
 2335  2342  2341 1
 2336  2343  2341 1
 2337  2343  2342 1
 2338  2345  2344 1
 2339  2346  2344 1
 2340  2346  2345 1
 2341  2348  2347 1
 2342  2349  2347 1
 2343  2349  2348 1
 2344  2351  2350 1
 2345  2352  2350 1
 2346  2352  2351 1
 2347  2354  2353 1
 2348  2355  2353 1
 2349  2355  2354 1
 2350  2357  2356 1
 2351  2358  2356 1
 2352  2358  2357 1
 2353  2360  2359 1
 2354  2361  2359 1
 2355  2361  2360 1
 2356  2363  2362 1
 2357  2364  2362 1
 2358  2364  2363 1
 2359  2366  2365 1
 2360  2367  2365 1
 2361  2367  2366 1
 2362  2369  2368 1
 2363  2370  2368 1
 2364  2370  2369 1
 2365  2372  2371 1
 2366  2373  2371 1
 2367  2373  2372 1
 2368  2375  2374 1
 2369  2376  2374 1
 2370  2376  2375 1
 2371  2378  2377 1
 2372  2379  2377 1
 2373  2379  2378 1
 2374  2381  2380 1
 2375  2382  2380 1
 2376  2382  2381 1
 2377  2384  2383 1
 2378  2385  2383 1
 2379  2385  2384 1
 2380  2387  2386 1
 2381  2388  2386 1
 2382  2388  2387 1
 2383  2390  2389 1
 2384  2391  2389 1
 2385  2391  2390 1
 2386  2393  2392 1
 2387  2394  2392 1
 2388  2394  2393 1
 2389  2396  2395 1
 2390  2397  2395 1
 2391  2397  2396 1
 2392  2399  2398 1
 2393  2400  2398 1
 2394  2400  2399 1
 2395  2402  2401 1
 2396  2403  2401 1
 2397  2403  2402 1
 2398  2405  2404 1
 2399  2406  2404 1
 2400  2406  2405 1
 2401  2408  2407 1
 2402  2409  2407 1
 2403  2409  2408 1
 2404  2411  2410 1
 2405  2412  2410 1
 2406  2412  2411 1
 2407  2414  2413 1
 2408  2415  2413 1
 2409  2415  2414 1
 2410  2417  2416 1
 2411  2418  2416 1
 2412  2418  2417 1
 2413  2420  2419 1
 2414  2421  2419 1
 2415  2421  2420 1
 2416  2423  2422 1
 2417  2424  2422 1
 2418  2424  2423 1
 2419  2426  2425 1
 2420  2427  2425 1
 2421  2427  2426 1
 2422  2429  2428 1
 2423  2430  2428 1
 2424  2430  2429 1
 2425  2432  2431 1
 2426  2433  2431 1
 2427  2433  2432 1
 2428  2435  2434 1
 2429  2436  2434 1
 2430  2436  2435 1
 2431  2438  2437 1
 2432  2439  2437 1
 2433  2439  2438 1
 2434  2441  2440 1
 2435  2442  2440 1
 2436  2442  2441 1
 2437  2444  2443 1
 2438  2445  2443 1
 2439  2445  2444 1
 2440  2447  2446 1
 2441  2448  2446 1
 2442  2448  2447 1
 2443  2450  2449 1
 2444  2451  2449 1
 2445  2451  2450 1
 2446  2453  2452 1
 2447  2454  2452 1
 2448  2454  2453 1
 2449  2456  2455 1
 2450  2457  2455 1
 2451  2457  2456 1
 2452  2459  2458 1
 2453  2460  2458 1
 2454  2460  2459 1
 2455  2462  2461 1
 2456  2463  2461 1
 2457  2463  2462 1
 2458  2465  2464 1
 2459  2466  2464 1
 2460  2466  2465 1
 2461  2468  2467 1
 2462  2469  2467 1
 2463  2469  2468 1
 2464  2471  2470 1
 2465  2472  2470 1
 2466  2472  2471 1
 2467  2474  2473 1
 2468  2475  2473 1
 2469  2475  2474 1
 2470  2477  2476 1
 2471  2478  2476 1
 2472  2478  2477 1
 2473  2480  2479 1
 2474  2481  2479 1
 2475  2481  2480 1
 2476  2483  2482 1
 2477  2484  2482 1
 2478  2484  2483 1
 2479  2486  2485 1
 2480  2487  2485 1
 2481  2487  2486 1
 2482  2489  2488 1
 2483  2490  2488 1
 2484  2490  2489 1
 2485  2492  2491 1
 2486  2493  2491 1
 2487  2493  2492 1
 2488  2495  2494 1
 2489  2496  2494 1
 2490  2496  2495 1
 2491  2498  2497 1
 2492  2499  2497 1
 2493  2499  2498 1
 2494  2501  2500 1
 2495  2502  2500 1
 2496  2502  2501 1
 2497  2504  2503 1
 2498  2505  2503 1
 2499  2505  2504 1
 2500  2507  2506 1
 2501  2508  2506 1
 2502  2508  2507 1
 2503  2510  2509 1
 2504  2511  2509 1
 2505  2511  2510 1
 2506  2513  2512 1
 2507  2514  2512 1
 2508  2514  2513 1
 2509  2516  2515 1
 2510  2517  2515 1
 2511  2517  2516 1
 2512  2519  2518 1
 2513  2520  2518 1
 2514  2520  2519 1
 2515  2522  2521 1
 2516  2523  2521 1
 2517  2523  2522 1
 2518  2525  2524 1
 2519  2526  2524 1
 2520  2526  2525 1
 2521  2528  2527 1
 2522  2529  2527 1
 2523  2529  2528 1
 2524  2531  2530 1
 2525  2532  2530 1
 2526  2532  2531 1
 2527  2534  2533 1
 2528  2535  2533 1
 2529  2535  2534 1
 2530  2537  2536 1
 2531  2538  2536 1
 2532  2538  2537 1
 2533  2540  2539 1
 2534  2541  2539 1
 2535  2541  2540 1
 2536  2543  2542 1
 2537  2544  2542 1
 2538  2544  2543 1
 2539  2546  2545 1
 2540  2547  2545 1
 2541  2547  2546 1
 2542  2549  2548 1
 2543  2550  2548 1
 2544  2550  2549 1
 2545  2552  2551 1
 2546  2553  2551 1
 2547  2553  2552 1
 2548  2555  2554 1
 2549  2556  2554 1
 2550  2556  2555 1
 2551  2558  2557 1
 2552  2559  2557 1
 2553  2559  2558 1
 2554  2561  2560 1
 2555  2562  2560 1
 2556  2562  2561 1
 2557  2564  2563 1
 2558  2565  2563 1
 2559  2565  2564 1
 2560  2567  2566 1
 2561  2568  2566 1
 2562  2568  2567 1
 2563  2570  2569 1
 2564  2571  2569 1
 2565  2571  2570 1
 2566  2573  2572 1
 2567  2574  2572 1
 2568  2574  2573 1
 2569  2576  2575 1
 2570  2577  2575 1
 2571  2577  2576 1
 2572  2579  2578 1
 2573  2580  2578 1
 2574  2580  2579 1
 2575  2582  2581 1
 2576  2583  2581 1
 2577  2583  2582 1
 2578  2585  2584 1
 2579  2586  2584 1
 2580  2586  2585 1
 2581  2588  2587 1
 2582  2589  2587 1
 2583  2589  2588 1
 2584  2591  2590 1
 2585  2592  2590 1
 2586  2592  2591 1
 2587  2594  2593 1
 2588  2595  2593 1
 2589  2595  2594 1
 2590  2597  2596 1
 2591  2598  2596 1
 2592  2598  2597 1
 2593  2600  2599 1
 2594  2601  2599 1
 2595  2601  2600 1
 2596  2603  2602 1
 2597  2604  2602 1
 2598  2604  2603 1
 2599  2606  2605 1
 2600  2607  2605 1
 2601  2607  2606 1
 2602  2609  2608 1
 2603  2610  2608 1
 2604  2610  2609 1
 2605  2612  2611 1
 2606  2613  2611 1
 2607  2613  2612 1
 2608  2615  2614 1
 2609  2616  2614 1
 2610  2616  2615 1
 2611  2618  2617 1
 2612  2619  2617 1
 2613  2619  2618 1
 2614  2621  2620 1
 2615  2622  2620 1
 2616  2622  2621 1
 2617  2624  2623 1
 2618  2625  2623 1
 2619  2625  2624 1
 2620  2627  2626 1
 2621  2628  2626 1
 2622  2628  2627 1
 2623  2630  2629 1
 2624  2631  2629 1
 2625  2631  2630 1
 2626  2633  2632 1
 2627  2634  2632 1
 2628  2634  2633 1
 2629  2636  2635 1
 2630  2637  2635 1
 2631  2637  2636 1
 2632  2639  2638 1
 2633  2640  2638 1
 2634  2640  2639 1
 2635  2642  2641 1
 2636  2643  2641 1
 2637  2643  2642 1
 2638  2645  2644 1
 2639  2646  2644 1
 2640  2646  2645 1
 2641  2648  2647 1
 2642  2649  2647 1
 2643  2649  2648 1
 2644  2651  2650 1
 2645  2652  2650 1
 2646  2652  2651 1
 2647  2654  2653 1
 2648  2655  2653 1
 2649  2655  2654 1
 2650  2657  2656 1
 2651  2658  2656 1
 2652  2658  2657 1
 2653  2660  2659 1
 2654  2661  2659 1
 2655  2661  2660 1
 2656  2663  2662 1
 2657  2664  2662 1
 2658  2664  2663 1
 2659  2666  2665 1
 2660  2667  2665 1
 2661  2667  2666 1
 2662  2669  2668 1
 2663  2670  2668 1
 2664  2670  2669 1
 2665  2672  2671 1
 2666  2673  2671 1
 2667  2673  2672 1
 2668  2675  2674 1
 2669  2676  2674 1
 2670  2676  2675 1
 2671  2678  2677 1
 2672  2679  2677 1
 2673  2679  2678 1
 2674  2681  2680 1
 2675  2682  2680 1
 2676  2682  2681 1
 2677  2684  2683 1
 2678  2685  2683 1
 2679  2685  2684 1
 2680  2687  2686 1
 2681  2688  2686 1
 2682  2688  2687 1
 2683  2690  2689 1
 2684  2691  2689 1
 2685  2691  2690 1
 2686  2693  2692 1
 2687  2694  2692 1
 2688  2694  2693 1
 2689  2696  2695 1
 2690  2697  2695 1
 2691  2697  2696 1
 2692  2699  2698 1
 2693  2700  2698 1
 2694  2700  2699 1
 2695  2702  2701 1
 2696  2703  2701 1
 2697  2703  2702 1
 2698  2705  2704 1
 2699  2706  2704 1
 2700  2706  2705 1
 2701  2708  2707 1
 2702  2709  2707 1
 2703  2709  2708 1
 2704  2711  2710 1
 2705  2712  2710 1
 2706  2712  2711 1
 2707  2714  2713 1
 2708  2715  2713 1
 2709  2715  2714 1
 2710  2717  2716 1
 2711  2718  2716 1
 2712  2718  2717 1
 2713  2720  2719 1
 2714  2721  2719 1
 2715  2721  2720 1
 2716  2723  2722 1
 2717  2724  2722 1
 2718  2724  2723 1
 2719  2726  2725 1
 2720  2727  2725 1
 2721  2727  2726 1
 2722  2729  2728 1
 2723  2730  2728 1
 2724  2730  2729 1
 2725  2732  2731 1
 2726  2733  2731 1
 2727  2733  2732 1
 2728  2735  2734 1
 2729  2736  2734 1
 2730  2736  2735 1
 2731  2738  2737 1
 2732  2739  2737 1
 2733  2739  2738 1
 2734  2741  2740 1
 2735  2742  2740 1
 2736  2742  2741 1
 2737  2744  2743 1
 2738  2745  2743 1
 2739  2745  2744 1
 2740  2747  2746 1
 2741  2748  2746 1
 2742  2748  2747 1
 2743  2750  2749 1
 2744  2751  2749 1
 2745  2751  2750 1
 2746  2753  2752 1
 2747  2754  2752 1
 2748  2754  2753 1
 2749  2756  2755 1
 2750  2757  2755 1
 2751  2757  2756 1
 2752  2759  2758 1
 2753  2760  2758 1
 2754  2760  2759 1
 2755  2762  2761 1
 2756  2763  2761 1
 2757  2763  2762 1
 2758  2765  2764 1
 2759  2766  2764 1
 2760  2766  2765 1
 2761  2768  2767 1
 2762  2769  2767 1
 2763  2769  2768 1
 2764  2771  2770 1
 2765  2772  2770 1
 2766  2772  2771 1
 2767  2774  2773 1
 2768  2775  2773 1
 2769  2775  2774 1
 2770  2777  2776 1
 2771  2778  2776 1
 2772  2778  2777 1
 2773  2780  2779 1
 2774  2781  2779 1
 2775  2781  2780 1
 2776  2783  2782 1
 2777  2784  2782 1
 2778  2784  2783 1
 2779  2786  2785 1
 2780  2787  2785 1
 2781  2787  2786 1
 2782  2789  2788 1
 2783  2790  2788 1
 2784  2790  2789 1
 2785  2792  2791 1
 2786  2793  2791 1
 2787  2793  2792 1
 2788  2795  2794 1
 2789  2796  2794 1
 2790  2796  2795 1
 2791  2798  2797 1
 2792  2799  2797 1
 2793  2799  2798 1
 2794  2801  2800 1
 2795  2802  2800 1
 2796  2802  2801 1
 2797  2804  2803 1
 2798  2805  2803 1
 2799  2805  2804 1
 2800  2807  2806 1
 2801  2808  2806 1
 2802  2808  2807 1
 2803  2810  2809 1
 2804  2811  2809 1
 2805  2811  2810 1
 2806  2813  2812 1
 2807  2814  2812 1
 2808  2814  2813 1
 2809  2816  2815 1
 2810  2817  2815 1
 2811  2817  2816 1
 2812  2819  2818 1
 2813  2820  2818 1
 2814  2820  2819 1
 2815  2822  2821 1
 2816  2823  2821 1
 2817  2823  2822 1
 2818  2825  2824 1
 2819  2826  2824 1
 2820  2826  2825 1
 2821  2828  2827 1
 2822  2829  2827 1
 2823  2829  2828 1
 2824  2831  2830 1
 2825  2832  2830 1
 2826  2832  2831 1
 2827  2834  2833 1
 2828  2835  2833 1
 2829  2835  2834 1
 2830  2837  2836 1
 2831  2838  2836 1
 2832  2838  2837 1
 2833  2840  2839 1
 2834  2841  2839 1
 2835  2841  2840 1
 2836  2843  2842 1
 2837  2844  2842 1
 2838  2844  2843 1
 2839  2846  2845 1
 2840  2847  2845 1
 2841  2847  2846 1
 2842  2849  2848 1
 2843  2850  2848 1
 2844  2850  2849 1
 2845  2852  2851 1
 2846  2853  2851 1
 2847  2853  2852 1
 2848  2855  2854 1
 2849  2856  2854 1
 2850  2856  2855 1
 2851  2858  2857 1
 2852  2859  2857 1
 2853  2859  2858 1
 2854  2861  2860 1
 2855  2862  2860 1
 2856  2862  2861 1
 2857  2864  2863 1
 2858  2865  2863 1
 2859  2865  2864 1
 2860  2867  2866 1
 2861  2868  2866 1
 2862  2868  2867 1
 2863  2870  2869 1
 2864  2871  2869 1
 2865  2871  2870 1
 2866  2873  2872 1
 2867  2874  2872 1
 2868  2874  2873 1
 2869  2876  2875 1
 2870  2877  2875 1
 2871  2877  2876 1
 2872  2879  2878 1
 2873  2880  2878 1
 2874  2880  2879 1
 2875  2882  2881 1
 2876  2883  2881 1
 2877  2883  2882 1
 2878  2885  2884 1
 2879  2886  2884 1
 2880  2886  2885 1
 2881  2888  2887 1
 2882  2889  2887 1
 2883  2889  2888 1
 2884  2891  2890 1
 2885  2892  2890 1
 2886  2892  2891 1
 2887  2894  2893 1
 2888  2895  2893 1
 2889  2895  2894 1
 2890  2897  2896 1
 2891  2898  2896 1
 2892  2898  2897 1
 2893  2900  2899 1
 2894  2901  2899 1
 2895  2901  2900 1
 2896  2903  2902 1
 2897  2904  2902 1
 2898  2904  2903 1
 2899  2906  2905 1
 2900  2907  2905 1
 2901  2907  2906 1
 2902  2909  2908 1
 2903  2910  2908 1
 2904  2910  2909 1
 2905  2912  2911 1
 2906  2913  2911 1
 2907  2913  2912 1
 2908  2915  2914 1
 2909  2916  2914 1
 2910  2916  2915 1
 2911  2918  2917 1
 2912  2919  2917 1
 2913  2919  2918 1
 2914  2921  2920 1
 2915  2922  2920 1
 2916  2922  2921 1
 2917  2924  2923 1
 2918  2925  2923 1
 2919  2925  2924 1
 2920  2927  2926 1
 2921  2928  2926 1
 2922  2928  2927 1
 2923  2930  2929 1
 2924  2931  2929 1
 2925  2931  2930 1
 2926  2933  2932 1
 2927  2934  2932 1
 2928  2934  2933 1
 2929  2936  2935 1
 2930  2937  2935 1
 2931  2937  2936 1
 2932  2939  2938 1
 2933  2940  2938 1
 2934  2940  2939 1
 2935  2942  2941 1
 2936  2943  2941 1
 2937  2943  2942 1
 2938  2945  2944 1
 2939  2946  2944 1
 2940  2946  2945 1
 2941  2948  2947 1
 2942  2949  2947 1
 2943  2949  2948 1
 2944  2951  2950 1
 2945  2952  2950 1
 2946  2952  2951 1
 2947  2954  2953 1
 2948  2955  2953 1
 2949  2955  2954 1
 2950  2957  2956 1
 2951  2958  2956 1
 2952  2958  2957 1
 2953  2960  2959 1
 2954  2961  2959 1
 2955  2961  2960 1
 2956  2963  2962 1
 2957  2964  2962 1
 2958  2964  2963 1
 2959  2966  2965 1
 2960  2967  2965 1
 2961  2967  2966 1
 2962  2969  2968 1
 2963  2970  2968 1
 2964  2970  2969 1
 2965  2972  2971 1
 2966  2973  2971 1
 2967  2973  2972 1
 2968  2975  2974 1
 2969  2976  2974 1
 2970  2976  2975 1
 2971  2978  2977 1
 2972  2979  2977 1
 2973  2979  2978 1
 2974  2981  2980 1
 2975  2982  2980 1
 2976  2982  2981 1
 2977  2984  2983 1
 2978  2985  2983 1
 2979  2985  2984 1
 2980  2987  2986 1
 2981  2988  2986 1
 2982  2988  2987 1
 2983  2990  2989 1
 2984  2991  2989 1
 2985  2991  2990 1
 2986  2993  2992 1
 2987  2994  2992 1
 2988  2994  2993 1
 2989  2996  2995 1
 2990  2997  2995 1
 2991  2997  2996 1
 2992  2999  2998 1
 2993  3000  2998 1
 2994  3000  2999 1
 2995  3002  3001 1
 2996  3003  3001 1
 2997  3003  3002 1
 2998  3005  3004 1
 2999  3006  3004 1
 3000  3006  3005 1
 3001  3008  3007 1
 3002  3009  3007 1
 3003  3009  3008 1
 3004  3011  3010 1
 3005  3012  3010 1
 3006  3012  3011 1
 3007  3014  3013 1
 3008  3015  3013 1
 3009  3015  3014 1
 3010  3017  3016 1
 3011  3018  3016 1
 3012  3018  3017 1
 3013  3020  3019 1
 3014  3021  3019 1
 3015  3021  3020 1
 3016  3023  3022 1
 3017  3024  3022 1
 3018  3024  3023 1
 3019  3026  3025 1
 3020  3027  3025 1
 3021  3027  3026 1
 3022  3029  3028 1
 3023  3030  3028 1
 3024  3030  3029 1
 3025  3032  3031 1
 3026  3033  3031 1
 3027  3033  3032 1
 3028  3035  3034 1
 3029  3036  3034 1
 3030  3036  3035 1
 3031  3038  3037 1
 3032  3039  3037 1
 3033  3039  3038 1
 3034  3041  3040 1
 3035  3042  3040 1
 3036  3042  3041 1
 3037  3044  3043 1
 3038  3045  3043 1
 3039  3045  3044 1
 3040  3047  3046 1
 3041  3048  3046 1
 3042  3048  3047 1
 3043  3050  3049 1
 3044  3051  3049 1
 3045  3051  3050 1
 3046  3053  3052 1
 3047  3054  3052 1
 3048  3054  3053 1
 3049  3056  3055 1
 3050  3057  3055 1
 3051  3057  3056 1
 3052  3059  3058 1
 3053  3060  3058 1
 3054  3060  3059 1
 3055  3062  3061 1
 3056  3063  3061 1
 3057  3063  3062 1
 3058  3065  3064 1
 3059  3066  3064 1
 3060  3066  3065 1
 3061  3068  3067 1
 3062  3069  3067 1
 3063  3069  3068 1
 3064  3071  3070 1
 3065  3072  3070 1
 3066  3072  3071 1
 3067  3074  3073 1
 3068  3075  3073 1
 3069  3075  3074 1
 3070  3077  3076 1
 3071  3078  3076 1
 3072  3078  3077 1
 3073  3080  3079 1
 3074  3081  3079 1
 3075  3081  3080 1
 3076  3083  3082 1
 3077  3084  3082 1
 3078  3084  3083 1
 3079  3086  3085 1
 3080  3087  3085 1
 3081  3087  3086 1
 3082  3089  3088 1
 3083  3090  3088 1
 3084  3090  3089 1
 3085  3092  3091 1
 3086  3093  3091 1
 3087  3093  3092 1
 3088  3095  3094 1
 3089  3096  3094 1
 3090  3096  3095 1
 3091  3098  3097 1
 3092  3099  3097 1
 3093  3099  3098 1
 3094  3101  3100 1
 3095  3102  3100 1
 3096  3102  3101 1
 3097  3104  3103 1
 3098  3105  3103 1
 3099  3105  3104 1
 3100  3107  3106 1
 3101  3108  3106 1
 3102  3108  3107 1
 3103  3110  3109 1
 3104  3111  3109 1
 3105  3111  3110 1
 3106  3113  3112 1
 3107  3114  3112 1
 3108  3114  3113 1
 3109  3116  3115 1
 3110  3117  3115 1
 3111  3117  3116 1
 3112  3119  3118 1
 3113  3120  3118 1
 3114  3120  3119 1
 3115  3122  3121 1
 3116  3123  3121 1
 3117  3123  3122 1
 3118  3125  3124 1
 3119  3126  3124 1
 3120  3126  3125 1
 3121  3128  3127 1
 3122  3129  3127 1
 3123  3129  3128 1
 3124  3131  3130 1
 3125  3132  3130 1
 3126  3132  3131 1
 3127  3134  3133 1
 3128  3135  3133 1
 3129  3135  3134 1
 3130  3137  3136 1
 3131  3138  3136 1
 3132  3138  3137 1
 3133  3140  3139 1
 3134  3141  3139 1
 3135  3141  3140 1
 3136  3143  3142 1
 3137  3144  3142 1
 3138  3144  3143 1
 3139  3146  3145 1
 3140  3147  3145 1
 3141  3147  3146 1
 3142  3149  3148 1
 3143  3150  3148 1
 3144  3150  3149 1
 3145  3152  3151 1
 3146  3153  3151 1
 3147  3153  3152 1
 3148  3155  3154 1
 3149  3156  3154 1
 3150  3156  3155 1
 3151  3158  3157 1
 3152  3159  3157 1
 3153  3159  3158 1
 3154  3161  3160 1
 3155  3162  3160 1
 3156  3162  3161 1
 3157  3164  3163 1
 3158  3165  3163 1
 3159  3165  3164 1
 3160  3167  3166 1
 3161  3168  3166 1
 3162  3168  3167 1
 3163  3170  3169 1
 3164  3171  3169 1
 3165  3171  3170 1
 3166  3173  3172 1
 3167  3174  3172 1
 3168  3174  3173 1
 3169  3176  3175 1
 3170  3177  3175 1
 3171  3177  3176 1
 3172  3179  3178 1
 3173  3180  3178 1
 3174  3180  3179 1
 3175  3182  3181 1
 3176  3183  3181 1
 3177  3183  3182 1
 3178  3185  3184 1
 3179  3186  3184 1
 3180  3186  3185 1
 3181  3188  3187 1
 3182  3189  3187 1
 3183  3189  3188 1
 3184  3191  3190 1
 3185  3192  3190 1
 3186  3192  3191 1
 3187  3194  3193 1
 3188  3195  3193 1
 3189  3195  3194 1
 3190  3197  3196 1
 3191  3198  3196 1
 3192  3198  3197 1
 3193  3200  3199 1
 3194  3201  3199 1
 3195  3201  3200 1
 3196  3203  3202 1
 3197  3204  3202 1
 3198  3204  3203 1
 3199  3206  3205 1
 3200  3207  3205 1
 3201  3207  3206 1
 3202  3209  3208 1
 3203  3210  3208 1
 3204  3210  3209 1
 3205  3212  3211 1
 3206  3213  3211 1
 3207  3213  3212 1
 3208  3215  3214 1
 3209  3216  3214 1
 3210  3216  3215 1
 3211  3218  3217 1
 3212  3219  3217 1
 3213  3219  3218 1
 3214  3221  3220 1
 3215  3222  3220 1
 3216  3222  3221 1
 3217  3224  3223 1
 3218  3225  3223 1
 3219  3225  3224 1
 3220  3227  3226 1
 3221  3228  3226 1
 3222  3228  3227 1
 3223  3230  3229 1
 3224  3231  3229 1
 3225  3231  3230 1
 3226  3233  3232 1
 3227  3234  3232 1
 3228  3234  3233 1
 3229  3236  3235 1
 3230  3237  3235 1
 3231  3237  3236 1
 3232  3239  3238 1
 3233  3240  3238 1
 3234  3240  3239 1
 3235  3242  3241 1
 3236  3243  3241 1
 3237  3243  3242 1
 3238  3245  3244 1
 3239  3246  3244 1
 3240  3246  3245 1
 3241  3248  3247 1
 3242  3249  3247 1
 3243  3249  3248 1
 3244  3251  3250 1
 3245  3252  3250 1
 3246  3252  3251 1
 3247  3254  3253 1
 3248  3255  3253 1
 3249  3255  3254 1
 3250  3257  3256 1
 3251  3258  3256 1
 3252  3258  3257 1
 3253  3260  3259 1
 3254  3261  3259 1
 3255  3261  3260 1
 3256  3263  3262 1
 3257  3264  3262 1
 3258  3264  3263 1
 3259  3266  3265 1
 3260  3267  3265 1
 3261  3267  3266 1
 3262  3269  3268 1
 3263  3270  3268 1
 3264  3270  3269 1
 3265  3272  3271 1
 3266  3273  3271 1
 3267  3273  3272 1
 3268  3275  3274 1
 3269  3276  3274 1
 3270  3276  3275 1
 3271  3278  3277 1
 3272  3279  3277 1
 3273  3279  3278 1
 3274  3281  3280 1
 3275  3282  3280 1
 3276  3282  3281 1
 3277  3284  3283 1
 3278  3285  3283 1
 3279  3285  3284 1
 3280  3287  3286 1
 3281  3288  3286 1
 3282  3288  3287 1
 3283  3290  3289 1
 3284  3291  3289 1
 3285  3291  3290 1
 3286  3293  3292 1
 3287  3294  3292 1
 3288  3294  3293 1
 3289  3296  3295 1
 3290  3297  3295 1
 3291  3297  3296 1
 3292  3299  3298 1
 3293  3300  3298 1
 3294  3300  3299 1
 3295  3302  3301 1
 3296  3303  3301 1
 3297  3303  3302 1
 3298  3305  3304 1
 3299  3306  3304 1
 3300  3306  3305 1
 3301  3308  3307 1
 3302  3309  3307 1
 3303  3309  3308 1
 3304  3311  3310 1
 3305  3312  3310 1
 3306  3312  3311 1
 3307  3314  3313 1
 3308  3315  3313 1
 3309  3315  3314 1
 3310  3317  3316 1
 3311  3318  3316 1
 3312  3318  3317 1
 3313  3320  3319 1
 3314  3321  3319 1
 3315  3321  3320 1
 3316  3323  3322 1
 3317  3324  3322 1
 3318  3324  3323 1
 3319  3326  3325 1
 3320  3327  3325 1
 3321  3327  3326 1
 3322  3329  3328 1
 3323  3330  3328 1
 3324  3330  3329 1
 3325  3332  3331 1
 3326  3333  3331 1
 3327  3333  3332 1
 3328  3335  3334 1
 3329  3336  3334 1
 3330  3336  3335 1
 3331  3338  3337 1
 3332  3339  3337 1
 3333  3339  3338 1
 3334  3341  3340 1
 3335  3342  3340 1
 3336  3342  3341 1
 3337  3344  3343 1
 3338  3345  3343 1
 3339  3345  3344 1
 3340  3347  3346 1
 3341  3348  3346 1
 3342  3348  3347 1
 3343  3350  3349 1
 3344  3351  3349 1
 3345  3351  3350 1
 3346  3353  3352 1
 3347  3354  3352 1
 3348  3354  3353 1
 3349  3356  3355 1
 3350  3357  3355 1
 3351  3357  3356 1
 3352  3359  3358 1
 3353  3360  3358 1
 3354  3360  3359 1
 3355  3362  3361 1
 3356  3363  3361 1
 3357  3363  3362 1
 3358  3365  3364 1
 3359  3366  3364 1
 3360  3366  3365 1
 3361  3368  3367 1
 3362  3369  3367 1
 3363  3369  3368 1
 3364  3371  3370 1
 3365  3372  3370 1
 3366  3372  3371 1
 3367  3374  3373 1
 3368  3375  3373 1
 3369  3375  3374 1
 3370  3377  3376 1
 3371  3378  3376 1
 3372  3378  3377 1
 3373  3380  3379 1
 3374  3381  3379 1
 3375  3381  3380 1
 3376  3383  3382 1
 3377  3384  3382 1
 3378  3384  3383 1
 3379  3386  3385 1
 3380  3387  3385 1
 3381  3387  3386 1
 3382  3389  3388 1
 3383  3390  3388 1
 3384  3390  3389 1
 3385  3392  3391 1
 3386  3393  3391 1
 3387  3393  3392 1
 3388  3395  3394 1
 3389  3396  3394 1
 3390  3396  3395 1
 3391  3398  3397 1
 3392  3399  3397 1
 3393  3399  3398 1
 3394  3401  3400 1
 3395  3402  3400 1
 3396  3402  3401 1
 3397  3404  3403 1
 3398  3405  3403 1
 3399  3405  3404 1
 3400  3407  3406 1
 3401  3408  3406 1
 3402  3408  3407 1
 3403  3410  3409 1
 3404  3411  3409 1
 3405  3411  3410 1
 3406  3413  3412 1
 3407  3414  3412 1
 3408  3414  3413 1
 3409  3416  3415 1
 3410  3417  3415 1
 3411  3417  3416 1
 3412  3419  3418 1
 3413  3420  3418 1
 3414  3420  3419 1
 3415  3422  3421 1
 3416  3423  3421 1
 3417  3423  3422 1
 3418  3425  3424 1
 3419  3426  3424 1
 3420  3426  3425 1
 3421  3428  3427 1
 3422  3429  3427 1
 3423  3429  3428 1
 3424  3431  3430 1
 3425  3432  3430 1
 3426  3432  3431 1
 3427  3434  3433 1
 3428  3435  3433 1
 3429  3435  3434 1
 3430  3437  3436 1
 3431  3438  3436 1
 3432  3438  3437 1
 3433  3440  3439 1
 3434  3441  3439 1
 3435  3441  3440 1
 3436  3443  3442 1
 3437  3444  3442 1
 3438  3444  3443 1
 3439  3446  3445 1
 3440  3447  3445 1
 3441  3447  3446 1
 3442  3449  3448 1
 3443  3450  3448 1
 3444  3450  3449 1
 3445  3452  3451 1
 3446  3453  3451 1
 3447  3453  3452 1
 3448  3455  3454 1
 3449  3456  3454 1
 3450  3456  3455 1
 3451  3458  3457 1
 3452  3459  3457 1
 3453  3459  3458 1
 3454  3461  3460 1
 3455  3462  3460 1
 3456  3462  3461 1
 3457  3464  3463 1
 3458  3465  3463 1
 3459  3465  3464 1
 3460  3467  3466 1
 3461  3468  3466 1
 3462  3468  3467 1
 3463  3470  3469 1
 3464  3471  3469 1
 3465  3471  3470 1
 3466  3473  3472 1
 3467  3474  3472 1
 3468  3474  3473 1
 3469  3476  3475 1
 3470  3477  3475 1
 3471  3477  3476 1
 3472  3479  3478 1
 3473  3480  3478 1
 3474  3480  3479 1
 3475  3482  3481 1
 3476  3483  3481 1
 3477  3483  3482 1
 3478  3485  3484 1
 3479  3486  3484 1
 3480  3486  3485 1
 3481  3488  3487 1
 3482  3489  3487 1
 3483  3489  3488 1
 3484  3491  3490 1
 3485  3492  3490 1
 3486  3492  3491 1
 3487  3494  3493 1
 3488  3495  3493 1
 3489  3495  3494 1
 3490  3497  3496 1
 3491  3498  3496 1
 3492  3498  3497 1
 3493  3500  3499 1
 3494  3501  3499 1
 3495  3501  3500 1
 3496  3503  3502 1
 3497  3504  3502 1
 3498  3504  3503 1
 3499  3506  3505 1
 3500  3507  3505 1
 3501  3507  3506 1
 3502  3509  3508 1
 3503  3510  3508 1
 3504  3510  3509 1
 3505  3512  3511 1
 3506  3513  3511 1
 3507  3513  3512 1
 3508  3515  3514 1
 3509  3516  3514 1
 3510  3516  3515 1
 3511  3518  3517 1
 3512  3519  3517 1
 3513  3519  3518 1
 3514  3521  3520 1
 3515  3522  3520 1
 3516  3522  3521 1
 3517  3524  3523 1
 3518  3525  3523 1
 3519  3525  3524 1
 3520  3527  3526 1
 3521  3528  3526 1
 3522  3528  3527 1
 3523  3530  3529 1
 3524  3531  3529 1
 3525  3531  3530 1
 3526  3533  3532 1
 3527  3534  3532 1
 3528  3534  3533 1
 3529  3536  3535 1
 3530  3537  3535 1
 3531  3537  3536 1
 3532  3539  3538 1
 3533  3540  3538 1
 3534  3540  3539 1
 3535  3542  3541 1
 3536  3543  3541 1
 3537  3543  3542 1
 3538  3545  3544 1
 3539  3546  3544 1
 3540  3546  3545 1
 3541  3548  3547 1
 3542  3549  3547 1
 3543  3549  3548 1
 3544  3551  3550 1
 3545  3552  3550 1
 3546  3552  3551 1
 3547  3554  3553 1
 3548  3555  3553 1
 3549  3555  3554 1
 3550  3557  3556 1
 3551  3558  3556 1
 3552  3558  3557 1
 3553  3560  3559 1
 3554  3561  3559 1
 3555  3561  3560 1
 3556  3563  3562 1
 3557  3564  3562 1
 3558  3564  3563 1
 3559  3566  3565 1
 3560  3567  3565 1
 3561  3567  3566 1
 3562  3569  3568 1
 3563  3570  3568 1
 3564  3570  3569 1
 3565  3572  3571 1
 3566  3573  3571 1
 3567  3573  3572 1
 3568  3575  3574 1
 3569  3576  3574 1
 3570  3576  3575 1
 3571  3578  3577 1
 3572  3579  3577 1
 3573  3579  3578 1
 3574  3581  3580 1
 3575  3582  3580 1
 3576  3582  3581 1
 3577  3584  3583 1
 3578  3585  3583 1
 3579  3585  3584 1
 3580  3587  3586 1
 3581  3588  3586 1
 3582  3588  3587 1
 3583  3590  3589 1
 3584  3591  3589 1
 3585  3591  3590 1
 3586  3593  3592 1
 3587  3594  3592 1
 3588  3594  3593 1
 3589  3596  3595 1
 3590  3597  3595 1
 3591  3597  3596 1
 3592  3599  3598 1
 3593  3600  3598 1
 3594  3600  3599 1
 3595  3602  3601 1
 3596  3603  3601 1
 3597  3603  3602 1
 3598  3605  3604 1
 3599  3606  3604 1
 3600  3606  3605 1
 3601  3608  3607 1
 3602  3609  3607 1
 3603  3609  3608 1
 3604  3611  3610 1
 3605  3612  3610 1
 3606  3612  3611 1
 3607  3614  3613 1
 3608  3615  3613 1
 3609  3615  3614 1
 3610  3617  3616 1
 3611  3618  3616 1
 3612  3618  3617 1
 3613  3620  3619 1
 3614  3621  3619 1
 3615  3621  3620 1
 3616  3623  3622 1
 3617  3624  3622 1
 3618  3624  3623 1
 3619  3626  3625 1
 3620  3627  3625 1
 3621  3627  3626 1
 3622  3629  3628 1
 3623  3630  3628 1
 3624  3630  3629 1
 3625  3632  3631 1
 3626  3633  3631 1
 3627  3633  3632 1
 3628  3635  3634 1
 3629  3636  3634 1
 3630  3636  3635 1
 3631  3638  3637 1
 3632  3639  3637 1
 3633  3639  3638 1
 3634  3641  3640 1
 3635  3642  3640 1
 3636  3642  3641 1
 3637  3644  3643 1
 3638  3645  3643 1
 3639  3645  3644 1
 3640  3647  3646 1
 3641  3648  3646 1
 3642  3648  3647 1
 3643  3650  3649 1
 3644  3651  3649 1
 3645  3651  3650 1
 3646  3653  3652 1
 3647  3654  3652 1
 3648  3654  3653 1
 3649  3656  3655 1
 3650  3657  3655 1
 3651  3657  3656 1
 3652  3659  3658 1
 3653  3660  3658 1
 3654  3660  3659 1
 3655  3662  3661 1
 3656  3663  3661 1
 3657  3663  3662 1
 3658  3665  3664 1
 3659  3666  3664 1
 3660  3666  3665 1
 3661  3668  3667 1
 3662  3669  3667 1
 3663  3669  3668 1
 3664  3671  3670 1
 3665  3672  3670 1
 3666  3672  3671 1
 3667  3674  3673 1
 3668  3675  3673 1
 3669  3675  3674 1
 3670  3677  3676 1
 3671  3678  3676 1
 3672  3678  3677 1
 3673  3680  3679 1
 3674  3681  3679 1
 3675  3681  3680 1
 3676  3683  3682 1
 3677  3684  3682 1
 3678  3684  3683 1
 3679  3686  3685 1
 3680  3687  3685 1
 3681  3687  3686 1
 3682  3689  3688 1
 3683  3690  3688 1
 3684  3690  3689 1
 3685  3692  3691 1
 3686  3693  3691 1
 3687  3693  3692 1
 3688  3695  3694 1
 3689  3696  3694 1
 3690  3696  3695 1
 3691  3698  3697 1
 3692  3699  3697 1
 3693  3699  3698 1
 3694  3701  3700 1
 3695  3702  3700 1
 3696  3702  3701 1
 3697  3704  3703 1
 3698  3705  3703 1
 3699  3705  3704 1
 3700  3707  3706 1
 3701  3708  3706 1
 3702  3708  3707 1
 3703  3710  3709 1
 3704  3711  3709 1
 3705  3711  3710 1
 3706  3713  3712 1
 3707  3714  3712 1
 3708  3714  3713 1
 3709  3716  3715 1
 3710  3717  3715 1
 3711  3717  3716 1
 3712  3719  3718 1
 3713  3720  3718 1
 3714  3720  3719 1
 3715  3722  3721 1
 3716  3723  3721 1
 3717  3723  3722 1
 3718  3725  3724 1
 3719  3726  3724 1
 3720  3726  3725 1
 3721  3728  3727 1
 3722  3729  3727 1
 3723  3729  3728 1
 3724  3731  3730 1
 3725  3732  3730 1
 3726  3732  3731 1
 3727  3734  3733 1
 3728  3735  3733 1
 3729  3735  3734 1
 3730  3737  3736 1
 3731  3738  3736 1
 3732  3738  3737 1
 3733  3740  3739 1
 3734  3741  3739 1
 3735  3741  3740 1
 3736  3743  3742 1
 3737  3744  3742 1
 3738  3744  3743 1
 3739  3746  3745 1
 3740  3747  3745 1
 3741  3747  3746 1
 3742  3749  3748 1
 3743  3750  3748 1
 3744  3750  3749 1
 3745  3752  3751 1
 3746  3753  3751 1
 3747  3753  3752 1
 3748  3755  3754 1
 3749  3756  3754 1
 3750  3756  3755 1
 3751  3758  3757 1
 3752  3759  3757 1
 3753  3759  3758 1
 3754  3761  3760 1
 3755  3762  3760 1
 3756  3762  3761 1
 3757  3764  3763 1
 3758  3765  3763 1
 3759  3765  3764 1
 3760  3767  3766 1
 3761  3768  3766 1
 3762  3768  3767 1
 3763  3770  3769 1
 3764  3771  3769 1
 3765  3771  3770 1
 3766  3773  3772 1
 3767  3774  3772 1
 3768  3774  3773 1
 3769  3776  3775 1
 3770  3777  3775 1
 3771  3777  3776 1
 3772  3779  3778 1
 3773  3780  3778 1
 3774  3780  3779 1
 3775  3782  3781 1
 3776  3783  3781 1
 3777  3783  3782 1
 3778  3785  3784 1
 3779  3786  3784 1
 3780  3786  3785 1
 3781  3788  3787 1
 3782  3789  3787 1
 3783  3789  3788 1
 3784  3791  3790 1
 3785  3792  3790 1
 3786  3792  3791 1
 3787  3794  3793 1
 3788  3795  3793 1
 3789  3795  3794 1
 3790  3797  3796 1
 3791  3798  3796 1
 3792  3798  3797 1
 3793  3800  3799 1
 3794  3801  3799 1
 3795  3801  3800 1
 3796  3803  3802 1
 3797  3804  3802 1
 3798  3804  3803 1
 3799  3806  3805 1
 3800  3807  3805 1
 3801  3807  3806 1
 3802  3809  3808 1
 3803  3810  3808 1
 3804  3810  3809 1
 3805  3812  3811 1
 3806  3813  3811 1
 3807  3813  3812 1
 3808  3815  3814 1
 3809  3816  3814 1
 3810  3816  3815 1
 3811  3818  3817 1
 3812  3819  3817 1
 3813  3819  3818 1
 3814  3821  3820 1
 3815  3822  3820 1
 3816  3822  3821 1
 3817  3824  3823 1
 3818  3825  3823 1
 3819  3825  3824 1
 3820  3827  3826 1
 3821  3828  3826 1
 3822  3828  3827 1
 3823  3830  3829 1
 3824  3831  3829 1
 3825  3831  3830 1
 3826  3833  3832 1
 3827  3834  3832 1
 3828  3834  3833 1
 3829  3836  3835 1
 3830  3837  3835 1
 3831  3837  3836 1
 3832  3839  3838 1
 3833  3840  3838 1
 3834  3840  3839 1
 3835  3842  3841 1
 3836  3843  3841 1
 3837  3843  3842 1
 3838  3845  3844 1
 3839  3846  3844 1
 3840  3846  3845 1
 3841  3848  3847 1
 3842  3849  3847 1
 3843  3849  3848 1
 3844  3851  3850 1
 3845  3852  3850 1
 3846  3852  3851 1
 3847  3854  3853 1
 3848  3855  3853 1
 3849  3855  3854 1
 3850  3857  3856 1
 3851  3858  3856 1
 3852  3858  3857 1
 3853  3860  3859 1
 3854  3861  3859 1
 3855  3861  3860 1
 3856  3863  3862 1
 3857  3864  3862 1
 3858  3864  3863 1
 3859  3866  3865 1
 3860  3867  3865 1
 3861  3867  3866 1
 3862  3869  3868 1
 3863  3870  3868 1
 3864  3870  3869 1
 3865  3872  3871 1
 3866  3873  3871 1
 3867  3873  3872 1
 3868  3875  3874 1
 3869  3876  3874 1
 3870  3876  3875 1
 3871  3878  3877 1
 3872  3879  3877 1
 3873  3879  3878 1
 3874  3881  3880 1
 3875  3882  3880 1
 3876  3882  3881 1
 3877  3884  3883 1
 3878  3885  3883 1
 3879  3885  3884 1
 3880  3887  3886 1
 3881  3888  3886 1
 3882  3888  3887 1
 3883  3890  3889 1
 3884  3891  3889 1
 3885  3891  3890 1
 3886  3893  3892 1
 3887  3894  3892 1
 3888  3894  3893 1
 3889  3896  3895 1
 3890  3897  3895 1
 3891  3897  3896 1
 3892  3899  3898 1
 3893  3900  3898 1
 3894  3900  3899 1
 3895  3902  3901 1
 3896  3903  3901 1
 3897  3903  3902 1
 3898  3905  3904 1
 3899  3906  3904 1
 3900  3906  3905 1
 3901  3908  3907 1
 3902  3909  3907 1
 3903  3909  3908 1
 3904  3911  3910 1
 3905  3912  3910 1
 3906  3912  3911 1
 3907  3914  3913 1
 3908  3915  3913 1
 3909  3915  3914 1
 3910  3917  3916 1
 3911  3918  3916 1
 3912  3918  3917 1
 3913  3920  3919 1
 3914  3921  3919 1
 3915  3921  3920 1
 3916  3923  3922 1
 3917  3924  3922 1
 3918  3924  3923 1
 3919  3926  3925 1
 3920  3927  3925 1
 3921  3927  3926 1
 3922  3929  3928 1
 3923  3930  3928 1
 3924  3930  3929 1
 3925  3932  3931 1
 3926  3933  3931 1
 3927  3933  3932 1
 3928  3935  3934 1
 3929  3936  3934 1
 3930  3936  3935 1
 3931  3938  3937 1
 3932  3939  3937 1
 3933  3939  3938 1
 3934  3941  3940 1
 3935  3942  3940 1
 3936  3942  3941 1
 3937  3944  3943 1
 3938  3945  3943 1
 3939  3945  3944 1
 3940  3947  3946 1
 3941  3948  3946 1
 3942  3948  3947 1
 3943  3950  3949 1
 3944  3951  3949 1
 3945  3951  3950 1
 3946  3953  3952 1
 3947  3954  3952 1
 3948  3954  3953 1
 3949  3956  3955 1
 3950  3957  3955 1
 3951  3957  3956 1
 3952  3959  3958 1
 3953  3960  3958 1
 3954  3960  3959 1
 3955  3962  3961 1
 3956  3963  3961 1
 3957  3963  3962 1
 3958  3965  3964 1
 3959  3966  3964 1
 3960  3966  3965 1
 3961  3968  3967 1
 3962  3969  3967 1
 3963  3969  3968 1
 3964  3971  3970 1
 3965  3972  3970 1
 3966  3972  3971 1
 3967  3974  3973 1
 3968  3975  3973 1
 3969  3975  3974 1
 3970  3977  3976 1
 3971  3978  3976 1
 3972  3978  3977 1
 3973  3980  3979 1
 3974  3981  3979 1
 3975  3981  3980 1
 3976  3983  3982 1
 3977  3984  3982 1
 3978  3984  3983 1
 3979  3986  3985 1
 3980  3987  3985 1
 3981  3987  3986 1
 3982  3989  3988 1
 3983  3990  3988 1
 3984  3990  3989 1
 3985  3992  3991 1
 3986  3993  3991 1
 3987  3993  3992 1
 3988  3995  3994 1
 3989  3996  3994 1
 3990  3996  3995 1
 3991  3998  3997 1
 3992  3999  3997 1
 3993  3999  3998 1
 3994  4001  4000 1
 3995  4002  4000 1
 3996  4002  4001 1
 3997  4004  4003 1
 3998  4005  4003 1
 3999  4005  4004 1
 4000  4007  4006 1
 4001  4008  4006 1
 4002  4008  4007 1
 4003  4010  4009 1
 4004  4011  4009 1
 4005  4011  4010 1
 4006  4013  4012 1
 4007  4014  4012 1
 4008  4014  4013 1
 4009  4016  4015 1
 4010  4017  4015 1
 4011  4017  4016 1
 4012  4019  4018 1
 4013  4020  4018 1
 4014  4020  4019 1
 4015  4022  4021 1
 4016  4023  4021 1
 4017  4023  4022 1
 4018  4025  4024 1
 4019  4026  4024 1
 4020  4026  4025 1
 4021  4028  4027 1
 4022  4029  4027 1
 4023  4029  4028 1
 4024  4031  4030 1
 4025  4032  4030 1
 4026  4032  4031 1
 4027  4034  4033 1
 4028  4035  4033 1
 4029  4035  4034 1
 4030  4037  4036 1
 4031  4038  4036 1
 4032  4038  4037 1
 4033  4040  4039 1
 4034  4041  4039 1
 4035  4041  4040 1
 4036  4043  4042 1
 4037  4044  4042 1
 4038  4044  4043 1
 4039  4046  4045 1
 4040  4047  4045 1
 4041  4047  4046 1
 4042  4049  4048 1
 4043  4050  4048 1
 4044  4050  4049 1
 4045  4052  4051 1
 4046  4053  4051 1
 4047  4053  4052 1
 4048  4055  4054 1
 4049  4056  4054 1
 4050  4056  4055 1
 4051  4058  4057 1
 4052  4059  4057 1
 4053  4059  4058 1
 4054  4061  4060 1
 4055  4062  4060 1
 4056  4062  4061 1
 4057  4064  4063 1
 4058  4065  4063 1
 4059  4065  4064 1
 4060  4067  4066 1
 4061  4068  4066 1
 4062  4068  4067 1
 4063  4070  4069 1
 4064  4071  4069 1
 4065  4071  4070 1
 4066  4073  4072 1
 4067  4074  4072 1
 4068  4074  4073 1
 4069  4076  4075 1
 4070  4077  4075 1
 4071  4077  4076 1
 4072  4079  4078 1
 4073  4080  4078 1
 4074  4080  4079 1
 4075  4082  4081 1
 4076  4083  4081 1
 4077  4083  4082 1
 4078  4085  4084 1
 4079  4086  4084 1
 4080  4086  4085 1
 4081  4088  4087 1
 4082  4089  4087 1
 4083  4089  4088 1
 4084  4091  4090 1
 4085  4092  4090 1
 4086  4092  4091 1
 4087  4094  4093 1
 4088  4095  4093 1
 4089  4095  4094 1
 4090  4097  4096 1
 4091  4098  4096 1
 4092  4098  4097 1
 4093  4100  4099 1
 4094  4101  4099 1
 4095  4101  4100 1
 4096  4103  4102 1
 4097  4104  4102 1
 4098  4104  4103 1
 4099  4106  4105 1
 4100  4107  4105 1
 4101  4107  4106 1
 4102  4109  4108 1
 4103  4110  4108 1
 4104  4110  4109 1
 4105  4112  4111 1
 4106  4113  4111 1
 4107  4113  4112 1
 4108  4115  4114 1
 4109  4116  4114 1
 4110  4116  4115 1
 4111  4118  4117 1
 4112  4119  4117 1
 4113  4119  4118 1
 4114  4121  4120 1
 4115  4122  4120 1
 4116  4122  4121 1
 4117  4124  4123 1
 4118  4125  4123 1
 4119  4125  4124 1
 4120  4127  4126 1
 4121  4128  4126 1
 4122  4128  4127 1
 4123  4130  4129 1
 4124  4131  4129 1
 4125  4131  4130 1
 4126  4133  4132 1
 4127  4134  4132 1
 4128  4134  4133 1
 4129  4136  4135 1
 4130  4137  4135 1
 4131  4137  4136 1
 4132  4139  4138 1
 4133  4140  4138 1
 4134  4140  4139 1
 4135  4142  4141 1
 4136  4143  4141 1
 4137  4143  4142 1
 4138  4145  4144 1
 4139  4146  4144 1
 4140  4146  4145 1
 4141  4148  4147 1
 4142  4149  4147 1
 4143  4149  4148 1
 4144  4151  4150 1
 4145  4152  4150 1
 4146  4152  4151 1
 4147  4154  4153 1
 4148  4155  4153 1
 4149  4155  4154 1
 4150  4157  4156 1
 4151  4158  4156 1
 4152  4158  4157 1
 4153  4160  4159 1
 4154  4161  4159 1
 4155  4161  4160 1
 4156  4163  4162 1
 4157  4164  4162 1
 4158  4164  4163 1
 4159  4166  4165 1
 4160  4167  4165 1
 4161  4167  4166 1
 4162  4169  4168 1
 4163  4170  4168 1
 4164  4170  4169 1
 4165  4172  4171 1
 4166  4173  4171 1
 4167  4173  4172 1
 4168  4175  4174 1
 4169  4176  4174 1
 4170  4176  4175 1
 4171  4178  4177 1
 4172  4179  4177 1
 4173  4179  4178 1
 4174  4181  4180 1
 4175  4182  4180 1
 4176  4182  4181 1
 4177  4184  4183 1
 4178  4185  4183 1
 4179  4185  4184 1
 4180  4187  4186 1
 4181  4188  4186 1
 4182  4188  4187 1
 4183  4190  4189 1
 4184  4191  4189 1
 4185  4191  4190 1
 4186  4193  4192 1
 4187  4194  4192 1
 4188  4194  4193 1
 4189  4196  4195 1
 4190  4197  4195 1
 4191  4197  4196 1
 4192  4199  4198 1
 4193  4200  4198 1
 4194  4200  4199 1
 4195  4202  4201 1
 4196  4203  4201 1
 4197  4203  4202 1
 4198  4205  4204 1
 4199  4206  4204 1
 4200  4206  4205 1
 4201  4208  4207 1
 4202  4209  4207 1
 4203  4209  4208 1
 4204  4211  4210 1
 4205  4212  4210 1
 4206  4212  4211 1
 4207  4214  4213 1
 4208  4215  4213 1
 4209  4215  4214 1
 4210  4217  4216 1
 4211  4218  4216 1
 4212  4218  4217 1
 4213  4220  4219 1
 4214  4221  4219 1
 4215  4221  4220 1
 4216  4223  4222 1
 4217  4224  4222 1
 4218  4224  4223 1
 4219  4226  4225 1
 4220  4227  4225 1
 4221  4227  4226 1
 4222  4229  4228 1
 4223  4230  4228 1
 4224  4230  4229 1
 4225  4232  4231 1
 4226  4233  4231 1
 4227  4233  4232 1
 4228  4235  4234 1
 4229  4236  4234 1
 4230  4236  4235 1
 4231  4238  4237 1
 4232  4239  4237 1
 4233  4239  4238 1
 4234  4241  4240 1
 4235  4242  4240 1
 4236  4242  4241 1
 4237  4244  4243 1
 4238  4245  4243 1
 4239  4245  4244 1
 4240  4247  4246 1
 4241  4248  4246 1
 4242  4248  4247 1
 4243  4250  4249 1
 4244  4251  4249 1
 4245  4251  4250 1
 4246  4253  4252 1
 4247  4254  4252 1
 4248  4254  4253 1
 4249  4256  4255 1
 4250  4257  4255 1
 4251  4257  4256 1
 4252  4259  4258 1
 4253  4260  4258 1
 4254  4260  4259 1
 4255  4262  4261 1
 4256  4263  4261 1
 4257  4263  4262 1
 4258  4265  4264 1
 4259  4266  4264 1
 4260  4266  4265 1
 4261  4268  4267 1
 4262  4269  4267 1
 4263  4269  4268 1
 4264  4271  4270 1
 4265  4272  4270 1
 4266  4272  4271 1
 4267  4274  4273 1
 4268  4275  4273 1
 4269  4275  4274 1
 4270  4277  4276 1
 4271  4278  4276 1
 4272  4278  4277 1
 4273  4280  4279 1
 4274  4281  4279 1
 4275  4281  4280 1
 4276  4283  4282 1
 4277  4284  4282 1
 4278  4284  4283 1
 4279  4286  4285 1
 4280  4287  4285 1
 4281  4287  4286 1
 4282  4289  4288 1
 4283  4290  4288 1
 4284  4290  4289 1
 4285  4292  4291 1
 4286  4293  4291 1
 4287  4293  4292 1
 4288  4295  4294 1
 4289  4296  4294 1
 4290  4296  4295 1
 4291  4298  4297 1
 4292  4299  4297 1
 4293  4299  4298 1
 4294  4301  4300 1
 4295  4302  4300 1
 4296  4302  4301 1
 4297  4304  4303 1
 4298  4305  4303 1
 4299  4305  4304 1
 4300  4307  4306 1
 4301  4308  4306 1
 4302  4308  4307 1
 4303  4310  4309 1
 4304  4311  4309 1
 4305  4311  4310 1
 4306  4313  4312 1
 4307  4314  4312 1
 4308  4314  4313 1
 4309  4316  4315 1
 4310  4317  4315 1
 4311  4317  4316 1
 4312  4319  4318 1
 4313  4320  4318 1
 4314  4320  4319 1
 4315  4322  4321 1
 4316  4323  4321 1
 4317  4323  4322 1
 4318  4325  4324 1
 4319  4326  4324 1
 4320  4326  4325 1
 4321  4328  4327 1
 4322  4329  4327 1
 4323  4329  4328 1
 4324  4331  4330 1
 4325  4332  4330 1
 4326  4332  4331 1
 4327  4334  4333 1
 4328  4335  4333 1
 4329  4335  4334 1
 4330  4337  4336 1
 4331  4338  4336 1
 4332  4338  4337 1
 4333  4340  4339 1
 4334  4341  4339 1
 4335  4341  4340 1
 4336  4343  4342 1
 4337  4344  4342 1
 4338  4344  4343 1
 4339  4346  4345 1
 4340  4347  4345 1
 4341  4347  4346 1
 4342  4349  4348 1
 4343  4350  4348 1
 4344  4350  4349 1
 4345  4352  4351 1
 4346  4353  4351 1
 4347  4353  4352 1
 4348  4355  4354 1
 4349  4356  4354 1
 4350  4356  4355 1
 4351  4358  4357 1
 4352  4359  4357 1
 4353  4359  4358 1
 4354  4361  4360 1
 4355  4362  4360 1
 4356  4362  4361 1
 4357  4364  4363 1
 4358  4365  4363 1
 4359  4365  4364 1
 4360  4367  4366 1
 4361  4368  4366 1
 4362  4368  4367 1
 4363  4370  4369 1
 4364  4371  4369 1
 4365  4371  4370 1
 4366  4373  4372 1
 4367  4374  4372 1
 4368  4374  4373 1
 4369  4376  4375 1
 4370  4377  4375 1
 4371  4377  4376 1
 4372  4379  4378 1
 4373  4380  4378 1
 4374  4380  4379 1
 4375  4382  4381 1
 4376  4383  4381 1
 4377  4383  4382 1
 4378  4385  4384 1
 4379  4386  4384 1
 4380  4386  4385 1
 4381  4388  4387 1
 4382  4389  4387 1
 4383  4389  4388 1
 4384  4391  4390 1
 4385  4392  4390 1
 4386  4392  4391 1
 4387  4394  4393 1
 4388  4395  4393 1
 4389  4395  4394 1
 4390  4397  4396 1
 4391  4398  4396 1
 4392  4398  4397 1
 4393  4400  4399 1
 4394  4401  4399 1
 4395  4401  4400 1
 4396  4403  4402 1
 4397  4404  4402 1
 4398  4404  4403 1
 4399  4406  4405 1
 4400  4407  4405 1
 4401  4407  4406 1
 4402  4409  4408 1
 4403  4410  4408 1
 4404  4410  4409 1
 4405  4412  4411 1
 4406  4413  4411 1
 4407  4413  4412 1
 4408  4415  4414 1
 4409  4416  4414 1
 4410  4416  4415 1
 4411  4418  4417 1
 4412  4419  4417 1
 4413  4419  4418 1
 4414  4421  4420 1
 4415  4422  4420 1
 4416  4422  4421 1
 4417  4424  4423 1
 4418  4425  4423 1
 4419  4425  4424 1
 4420  4427  4426 1
 4421  4428  4426 1
 4422  4428  4427 1
 4423  4430  4429 1
 4424  4431  4429 1
 4425  4431  4430 1
 4426  4433  4432 1
 4427  4434  4432 1
 4428  4434  4433 1
 4429  4436  4435 1
 4430  4437  4435 1
 4431  4437  4436 1
 4432  4439  4438 1
 4433  4440  4438 1
 4434  4440  4439 1
 4435  4442  4441 1
 4436  4443  4441 1
 4437  4443  4442 1
 4438  4445  4444 1
 4439  4446  4444 1
 4440  4446  4445 1
 4441  4448  4447 1
 4442  4449  4447 1
 4443  4449  4448 1
 4444  4451  4450 1
 4445  4452  4450 1
 4446  4452  4451 1
 4447  4454  4453 1
 4448  4455  4453 1
 4449  4455  4454 1
 4450  4457  4456 1
 4451  4458  4456 1
 4452  4458  4457 1
 4453  4460  4459 1
 4454  4461  4459 1
 4455  4461  4460 1
 4456  4463  4462 1
 4457  4464  4462 1
 4458  4464  4463 1
 4459  4466  4465 1
 4460  4467  4465 1
 4461  4467  4466 1
 4462  4469  4468 1
 4463  4470  4468 1
 4464  4470  4469 1
 4465  4472  4471 1
 4466  4473  4471 1
 4467  4473  4472 1
 4468  4475  4474 1
 4469  4476  4474 1
 4470  4476  4475 1
 4471  4478  4477 1
 4472  4479  4477 1
 4473  4479  4478 1
 4474  4481  4480 1
 4475  4482  4480 1
 4476  4482  4481 1
 4477  4484  4483 1
 4478  4485  4483 1
 4479  4485  4484 1
 4480  4487  4486 1
 4481  4488  4486 1
 4482  4488  4487 1
 4483  4490  4489 1
 4484  4491  4489 1
 4485  4491  4490 1
 4486  4493  4492 1
 4487  4494  4492 1
 4488  4494  4493 1
 4489  4496  4495 1
 4490  4497  4495 1
 4491  4497  4496 1
 4492  4499  4498 1
 4493  4500  4498 1
 4494  4500  4499 1
 4495  4502  4501 1
 4496  4503  4501 1
 4497  4503  4502 1
 4498  4505  4504 1
 4499  4506  4504 1
 4500  4506  4505 1
 4501  4508  4507 1
 4502  4509  4507 1
 4503  4509  4508 1
 4504  4511  4510 1
 4505  4512  4510 1
 4506  4512  4511 1
 4507  4514  4513 1
 4508  4515  4513 1
 4509  4515  4514 1
 4510  4517  4516 1
 4511  4518  4516 1
 4512  4518  4517 1
 4513  4520  4519 1
 4514  4521  4519 1
 4515  4521  4520 1
 4516  4523  4522 1
 4517  4524  4522 1
 4518  4524  4523 1
 4519  4526  4525 1
 4520  4527  4525 1
 4521  4527  4526 1
 4522  4529  4528 1
 4523  4530  4528 1
 4524  4530  4529 1
 4525  4532  4531 1
 4526  4533  4531 1
 4527  4533  4532 1
 4528  4535  4534 1
 4529  4536  4534 1
 4530  4536  4535 1
 4531  4538  4537 1
 4532  4539  4537 1
 4533  4539  4538 1
 4534  4541  4540 1
 4535  4542  4540 1
 4536  4542  4541 1
 4537  4544  4543 1
 4538  4545  4543 1
 4539  4545  4544 1
 4540  4547  4546 1
 4541  4548  4546 1
 4542  4548  4547 1
 4543  4550  4549 1
 4544  4551  4549 1
 4545  4551  4550 1
 4546  4553  4552 1
 4547  4554  4552 1
 4548  4554  4553 1
 4549  4556  4555 1
 4550  4557  4555 1
 4551  4557  4556 1
 4552  4559  4558 1
 4553  4560  4558 1
 4554  4560  4559 1
 4555  4562  4561 1
 4556  4563  4561 1
 4557  4563  4562 1
 4558  4565  4564 1
 4559  4566  4564 1
 4560  4566  4565 1
 4561  4568  4567 1
 4562  4569  4567 1
 4563  4569  4568 1
 4564  4571  4570 1
 4565  4572  4570 1
 4566  4572  4571 1
 4567  4574  4573 1
 4568  4575  4573 1
 4569  4575  4574 1
 4570  4577  4576 1
 4571  4578  4576 1
 4572  4578  4577 1
 4573  4580  4579 1
 4574  4581  4579 1
 4575  4581  4580 1
 4576  4583  4582 1
 4577  4584  4582 1
 4578  4584  4583 1
 4579  4586  4585 1
 4580  4587  4585 1
 4581  4587  4586 1
 4582  4589  4588 1
 4583  4590  4588 1
 4584  4590  4589 1
 4585  4592  4591 1
 4586  4593  4591 1
 4587  4593  4592 1
 4588  4595  4594 1
 4589  4596  4594 1
 4590  4596  4595 1
 4591  4598  4597 1
 4592  4599  4597 1
 4593  4599  4598 1
 4594  4601  4600 1
 4595  4602  4600 1
 4596  4602  4601 1
 4597  4604  4603 1
 4598  4605  4603 1
 4599  4605  4604 1
 4600  4607  4606 1
 4601  4608  4606 1
 4602  4608  4607 1
 4603  4610  4609 1
 4604  4611  4609 1
 4605  4611  4610 1
 4606  4613  4612 1
 4607  4614  4612 1
 4608  4614  4613 1
 4609  4616  4615 1
 4610  4617  4615 1
 4611  4617  4616 1
 4612  4619  4618 1
 4613  4620  4618 1
 4614  4620  4619 1
 4615  4622  4621 1
 4616  4623  4621 1
 4617  4623  4622 1
 4618  4625  4624 1
 4619  4626  4624 1
 4620  4626  4625 1
 4621  4628  4627 1
 4622  4629  4627 1
 4623  4629  4628 1
 4624  4631  4630 1
 4625  4632  4630 1
 4626  4632  4631 1
 4627  4634  4633 1
 4628  4635  4633 1
 4629  4635  4634 1
 4630  4637  4636 1
 4631  4638  4636 1
 4632  4638  4637 1
 4633  4640  4639 1
 4634  4641  4639 1
 4635  4641  4640 1
 4636  4643  4642 1
 4637  4644  4642 1
 4638  4644  4643 1
 4639  4646  4645 1
 4640  4647  4645 1
 4641  4647  4646 1
 4642  4649  4648 1
 4643  4650  4648 1
 4644  4650  4649 1
 4645  4652  4651 1
 4646  4653  4651 1
 4647  4653  4652 1
 4648  4655  4654 1
 4649  4656  4654 1
 4650  4656  4655 1
 4651  4658  4657 1
 4652  4659  4657 1
 4653  4659  4658 1
 4654  4661  4660 1
 4655  4662  4660 1
 4656  4662  4661 1
 4657  4664  4663 1
 4658  4665  4663 1
 4659  4665  4664 1
 4660  4667  4666 1
 4661  4668  4666 1
 4662  4668  4667 1
 4663  4670  4669 1
 4664  4671  4669 1
 4665  4671  4670 1
 4666  4673  4672 1
 4667  4674  4672 1
 4668  4674  4673 1
 4669  4676  4675 1
 4670  4677  4675 1
 4671  4677  4676 1
 4672  4679  4678 1
 4673  4680  4678 1
 4674  4680  4679 1
 4675  4682  4681 1
 4676  4683  4681 1
 4677  4683  4682 1
 4678  4685  4684 1
 4679  4686  4684 1
 4680  4686  4685 1
 4681  4688  4687 1
 4682  4689  4687 1
 4683  4689  4688 1
 4684  4691  4690 1
 4685  4692  4690 1
 4686  4692  4691 1
 4687  4694  4693 1
 4688  4695  4693 1
 4689  4695  4694 1
 4690  4697  4696 1
 4691  4698  4696 1
 4692  4698  4697 1
 4693  4700  4699 1
 4694  4701  4699 1
 4695  4701  4700 1
 4696  4703  4702 1
 4697  4704  4702 1
 4698  4704  4703 1
 4699  4706  4705 1
 4700  4707  4705 1
 4701  4707  4706 1
 4702  4709  4708 1
 4703  4710  4708 1
 4704  4710  4709 1
 4705  4712  4711 1
 4706  4713  4711 1
 4707  4713  4712 1
 4708  4715  4714 1
 4709  4716  4714 1
 4710  4716  4715 1
 4711  4718  4717 1
 4712  4719  4717 1
 4713  4719  4718 1
 4714  4721  4720 1
 4715  4722  4720 1
 4716  4722  4721 1
 4717  4724  4723 1
 4718  4725  4723 1
 4719  4725  4724 1
 4720  4727  4726 1
 4721  4728  4726 1
 4722  4728  4727 1
 4723  4730  4729 1
 4724  4731  4729 1
 4725  4731  4730 1
 4726  4733  4732 1
 4727  4734  4732 1
 4728  4734  4733 1
 4729  4736  4735 1
 4730  4737  4735 1
 4731  4737  4736 1
 4732  4739  4738 1
 4733  4740  4738 1
 4734  4740  4739 1
 4735  4742  4741 1
 4736  4743  4741 1
 4737  4743  4742 1
 4738  4745  4744 1
 4739  4746  4744 1
 4740  4746  4745 1
 4741  4748  4747 1
 4742  4749  4747 1
 4743  4749  4748 1
 4744  4751  4750 1
 4745  4752  4750 1
 4746  4752  4751 1
 4747  4754  4753 1
 4748  4755  4753 1
 4749  4755  4754 1
 4750  4757  4756 1
 4751  4758  4756 1
 4752  4758  4757 1
 4753  4760  4759 1
 4754  4761  4759 1
 4755  4761  4760 1
 4756  4763  4762 1
 4757  4764  4762 1
 4758  4764  4763 1
 4759  4766  4765 1
 4760  4767  4765 1
 4761  4767  4766 1
 4762  4769  4768 1
 4763  4770  4768 1
 4764  4770  4769 1
 4765  4772  4771 1
 4766  4773  4771 1
 4767  4773  4772 1
 4768  4775  4774 1
 4769  4776  4774 1
 4770  4776  4775 1
 4771  4778  4777 1
 4772  4779  4777 1
 4773  4779  4778 1
 4774  4781  4780 1
 4775  4782  4780 1
 4776  4782  4781 1
 4777  4784  4783 1
 4778  4785  4783 1
 4779  4785  4784 1
 4780  4787  4786 1
 4781  4788  4786 1
 4782  4788  4787 1
 4783  4790  4789 1
 4784  4791  4789 1
 4785  4791  4790 1
 4786  4793  4792 1
 4787  4794  4792 1
 4788  4794  4793 1
 4789  4796  4795 1
 4790  4797  4795 1
 4791  4797  4796 1
 4792  4799  4798 1
 4793  4800  4798 1
 4794  4800  4799 1
 4795  4802  4801 1
 4796  4803  4801 1
 4797  4803  4802 1
 4798  4805  4804 1
 4799  4806  4804 1
 4800  4806  4805 1
 4801  4808  4807 1
 4802  4809  4807 1
 4803  4809  4808 1
 4804  4811  4810 1
 4805  4812  4810 1
 4806  4812  4811 1
 4807  4814  4813 1
 4808  4815  4813 1
 4809  4815  4814 1
 4810  4817  4816 1
 4811  4818  4816 1
 4812  4818  4817 1
 4813  4820  4819 1
 4814  4821  4819 1
 4815  4821  4820 1
 4816  4823  4822 1
 4817  4824  4822 1
 4818  4824  4823 1
 4819  4826  4825 1
 4820  4827  4825 1
 4821  4827  4826 1
 4822  4829  4828 1
 4823  4830  4828 1
 4824  4830  4829 1
 4825  4832  4831 1
 4826  4833  4831 1
 4827  4833  4832 1
 4828  4835  4834 1
 4829  4836  4834 1
 4830  4836  4835 1
 4831  4838  4837 1
 4832  4839  4837 1
 4833  4839  4838 1
 4834  4841  4840 1
 4835  4842  4840 1
 4836  4842  4841 1
 4837  4844  4843 1
 4838  4845  4843 1
 4839  4845  4844 1
 4840  4847  4846 1
 4841  4848  4846 1
 4842  4848  4847 1
 4843  4850  4849 1
 4844  4851  4849 1
 4845  4851  4850 1
 4846  4853  4852 1
 4847  4854  4852 1
 4848  4854  4853 1
 4849  4856  4855 1
 4850  4857  4855 1
 4851  4857  4856 1
 4852  4859  4858 1
 4853  4860  4858 1
 4854  4860  4859 1
 4855  4862  4861 1
 4856  4863  4861 1
 4857  4863  4862 1
 4858  4865  4864 1
 4859  4866  4864 1
 4860  4866  4865 1
 4861  4868  4867 1
 4862  4869  4867 1
 4863  4869  4868 1
 4864  4871  4870 1
 4865  4872  4870 1
 4866  4872  4871 1
 4867  4874  4873 1
 4868  4875  4873 1
 4869  4875  4874 1
 4870  4877  4876 1
 4871  4878  4876 1
 4872  4878  4877 1
 4873  4880  4879 1
 4874  4881  4879 1
 4875  4881  4880 1
 4876  4883  4882 1
 4877  4884  4882 1
 4878  4884  4883 1
 4879  4886  4885 1
 4880  4887  4885 1
 4881  4887  4886 1
 4882  4889  4888 1
 4883  4890  4888 1
 4884  4890  4889 1
 4885  4892  4891 1
 4886  4893  4891 1
 4887  4893  4892 1
 4888  4895  4894 1
 4889  4896  4894 1
 4890  4896  4895 1
 4891  4898  4897 1
 4892  4899  4897 1
 4893  4899  4898 1
 4894  4901  4900 1
 4895  4902  4900 1
 4896  4902  4901 1
 4897  4904  4903 1
 4898  4905  4903 1
 4899  4905  4904 1
 4900  4907  4906 1
 4901  4908  4906 1
 4902  4908  4907 1
 4903  4910  4909 1
 4904  4911  4909 1
 4905  4911  4910 1
 4906  4913  4912 1
 4907  4914  4912 1
 4908  4914  4913 1
 4909  4916  4915 1
 4910  4917  4915 1
 4911  4917  4916 1
 4912  4919  4918 1
 4913  4920  4918 1
 4914  4920  4919 1
 4915  4922  4921 1
 4916  4923  4921 1
 4917  4923  4922 1
 4918  4925  4924 1
 4919  4926  4924 1
 4920  4926  4925 1
 4921  4928  4927 1
 4922  4929  4927 1
 4923  4929  4928 1
 4924  4931  4930 1
 4925  4932  4930 1
 4926  4932  4931 1
 4927  4934  4933 1
 4928  4935  4933 1
 4929  4935  4934 1
 4930  4937  4936 1
 4931  4938  4936 1
 4932  4938  4937 1
 4933  4940  4939 1
 4934  4941  4939 1
 4935  4941  4940 1
 4936  4943  4942 1
 4937  4944  4942 1
 4938  4944  4943 1
 4939  4946  4945 1
 4940  4947  4945 1
 4941  4947  4946 1
 4942  4949  4948 1
 4943  4950  4948 1
 4944  4950  4949 1
 4945  4952  4951 1
 4946  4953  4951 1
 4947  4953  4952 1
 4948  4955  4954 1
 4949  4956  4954 1
 4950  4956  4955 1
 4951  4958  4957 1
 4952  4959  4957 1
 4953  4959  4958 1
 4954  4961  4960 1
 4955  4962  4960 1
 4956  4962  4961 1
 4957  4964  4963 1
 4958  4965  4963 1
 4959  4965  4964 1
 4960  4967  4966 1
 4961  4968  4966 1
 4962  4968  4967 1
 4963  4970  4969 1
 4964  4971  4969 1
 4965  4971  4970 1
 4966  4973  4972 1
 4967  4974  4972 1
 4968  4974  4973 1
 4969  4976  4975 1
 4970  4977  4975 1
 4971  4977  4976 1
 4972  4979  4978 1
 4973  4980  4978 1
 4974  4980  4979 1
 4975  4982  4981 1
 4976  4983  4981 1
 4977  4983  4982 1
 4978  4985  4984 1
 4979  4986  4984 1
 4980  4986  4985 1
 4981  4988  4987 1
 4982  4989  4987 1
 4983  4989  4988 1
 4984  4991  4990 1
 4985  4992  4990 1
 4986  4992  4991 1
 4987  4994  4993 1
 4988  4995  4993 1
 4989  4995  4994 1
 4990  4997  4996 1
 4991  4998  4996 1
 4992  4998  4997 1
 4993  5000  4999 1
 4994  5001  4999 1
 4995  5001  5000 1
 4996  5003  5002 1
 4997  5004  5002 1
 4998  5004  5003 1
 4999  5006  5005 1
 5000  5007  5005 1
 5001  5007  5006 1
 5002  5009  5008 1
 5003  5010  5008 1
 5004  5010  5009 1
 5005  5012  5011 1
 5006  5013  5011 1
 5007  5013  5012 1
 5008  5015  5014 1
 5009  5016  5014 1
 5010  5016  5015 1
 5011  5018  5017 1
 5012  5019  5017 1
 5013  5019  5018 1
 5014  5021  5020 1
 5015  5022  5020 1
 5016  5022  5021 1
 5017  5024  5023 1
 5018  5025  5023 1
 5019  5025  5024 1
 5020  5027  5026 1
 5021  5028  5026 1
 5022  5028  5027 1
 5023  5030  5029 1
 5024  5031  5029 1
 5025  5031  5030 1
 5026  5033  5032 1
 5027  5034  5032 1
 5028  5034  5033 1
 5029  5036  5035 1
 5030  5037  5035 1
 5031  5037  5036 1
 5032  5039  5038 1
 5033  5040  5038 1
 5034  5040  5039 1
 5035  5042  5041 1
 5036  5043  5041 1
 5037  5043  5042 1
 5038  5045  5044 1
 5039  5046  5044 1
 5040  5046  5045 1
 5041  5048  5047 1
 5042  5049  5047 1
 5043  5049  5048 1
 5044  5051  5050 1
 5045  5052  5050 1
 5046  5052  5051 1
 5047  5054  5053 1
 5048  5055  5053 1
 5049  5055  5054 1
 5050  5057  5056 1
 5051  5058  5056 1
 5052  5058  5057 1
 5053  5060  5059 1
 5054  5061  5059 1
 5055  5061  5060 1
 5056  5063  5062 1
 5057  5064  5062 1
 5058  5064  5063 1
 5059  5066  5065 1
 5060  5067  5065 1
 5061  5067  5066 1
 5062  5069  5068 1
 5063  5070  5068 1
 5064  5070  5069 1
 5065  5072  5071 1
 5066  5073  5071 1
 5067  5073  5072 1
 5068  5075  5074 1
 5069  5076  5074 1
 5070  5076  5075 1
 5071  5078  5077 1
 5072  5079  5077 1
 5073  5079  5078 1
 5074  5081  5080 1
 5075  5082  5080 1
 5076  5082  5081 1
 5077  5084  5083 1
 5078  5085  5083 1
 5079  5085  5084 1
 5080  5087  5086 1
 5081  5088  5086 1
 5082  5088  5087 1
 5083  5090  5089 1
 5084  5091  5089 1
 5085  5091  5090 1
 5086  5093  5092 1
 5087  5094  5092 1
 5088  5094  5093 1
 5089  5096  5095 1
 5090  5097  5095 1
 5091  5097  5096 1
 5092  5099  5098 1
 5093  5100  5098 1
 5094  5100  5099 1
 5095  5102  5101 1
 5096  5103  5101 1
 5097  5103  5102 1
 5098  5105  5104 1
 5099  5106  5104 1
 5100  5106  5105 1
 5101  5108  5107 1
 5102  5109  5107 1
 5103  5109  5108 1
 5104  5111  5110 1
 5105  5112  5110 1
 5106  5112  5111 1
 5107  5114  5113 1
 5108  5115  5113 1
 5109  5115  5114 1
 5110  5117  5116 1
 5111  5118  5116 1
 5112  5118  5117 1
 5113  5120  5119 1
 5114  5121  5119 1
 5115  5121  5120 1
 5116  5123  5122 1
 5117  5124  5122 1
 5118  5124  5123 1
 5119  5126  5125 1
 5120  5127  5125 1
 5121  5127  5126 1
 5122  5129  5128 1
 5123  5130  5128 1
 5124  5130  5129 1
 5125  5132  5131 1
 5126  5133  5131 1
 5127  5133  5132 1
 5128  5135  5134 1
 5129  5136  5134 1
 5130  5136  5135 1
 5131  5138  5137 1
 5132  5139  5137 1
 5133  5139  5138 1
 5134  5141  5140 1
 5135  5142  5140 1
 5136  5142  5141 1
 5137  5144  5143 1
 5138  5145  5143 1
 5139  5145  5144 1
 5140  5147  5146 1
 5141  5148  5146 1
 5142  5148  5147 1
 5143  5150  5149 1
 5144  5151  5149 1
 5145  5151  5150 1
 5146  5153  5152 1
 5147  5154  5152 1
 5148  5154  5153 1
 5149  5156  5155 1
 5150  5157  5155 1
 5151  5157  5156 1
 5152  5159  5158 1
 5153  5160  5158 1
 5154  5160  5159 1
 5155  5162  5161 1
 5156  5163  5161 1
 5157  5163  5162 1
 5158  5165  5164 1
 5159  5166  5164 1
 5160  5166  5165 1
 5161  5168  5167 1
 5162  5169  5167 1
 5163  5169  5168 1
 5164  5171  5170 1
 5165  5172  5170 1
 5166  5172  5171 1
 5167  5174  5173 1
 5168  5175  5173 1
 5169  5175  5174 1
 5170  5177  5176 1
 5171  5178  5176 1
 5172  5178  5177 1
 5173  5180  5179 1
 5174  5181  5179 1
 5175  5181  5180 1
 5176  5183  5182 1
 5177  5184  5182 1
 5178  5184  5183 1
 5179  5186  5185 1
 5180  5187  5185 1
 5181  5187  5186 1
 5182  5189  5188 1
 5183  5190  5188 1
 5184  5190  5189 1
 5185  5192  5191 1
 5186  5193  5191 1
 5187  5193  5192 1
 5188  5195  5194 1
 5189  5196  5194 1
 5190  5196  5195 1
 5191  5198  5197 1
 5192  5199  5197 1
 5193  5199  5198 1
 5194  5201  5200 1
 5195  5202  5200 1
 5196  5202  5201 1
 5197  5204  5203 1
 5198  5205  5203 1
 5199  5205  5204 1
 5200  5207  5206 1
 5201  5208  5206 1
 5202  5208  5207 1
 5203  5210  5209 1
 5204  5211  5209 1
 5205  5211  5210 1
 5206  5213  5212 1
 5207  5214  5212 1
 5208  5214  5213 1
 5209  5216  5215 1
 5210  5217  5215 1
 5211  5217  5216 1
 5212  5219  5218 1
 5213  5220  5218 1
 5214  5220  5219 1
 5215  5222  5221 1
 5216  5223  5221 1
 5217  5223  5222 1
 5218  5225  5224 1
 5219  5226  5224 1
 5220  5226  5225 1
 5221  5228  5227 1
 5222  5229  5227 1
 5223  5229  5228 1
 5224  5231  5230 1
 5225  5232  5230 1
 5226  5232  5231 1
 5227  5234  5233 1
 5228  5235  5233 1
 5229  5235  5234 1
 5230  5237  5236 1
 5231  5238  5236 1
 5232  5238  5237 1
 5233  5240  5239 1
 5234  5241  5239 1
 5235  5241  5240 1
 5236  5243  5242 1
 5237  5244  5242 1
 5238  5244  5243 1
 5239  5246  5245 1
 5240  5247  5245 1
 5241  5247  5246 1
 5242  5249  5248 1
 5243  5250  5248 1
 5244  5250  5249 1
 5245  5252  5251 1
 5246  5253  5251 1
 5247  5253  5252 1
 5248  5255  5254 1
 5249  5256  5254 1
 5250  5256  5255 1
 5251  5258  5257 1
 5252  5259  5257 1
 5253  5259  5258 1
 5254  5261  5260 1
 5255  5262  5260 1
 5256  5262  5261 1
 5257  5264  5263 1
 5258  5265  5263 1
 5259  5265  5264 1
 5260  5267  5266 1
 5261  5268  5266 1
 5262  5268  5267 1
 5263  5270  5269 1
 5264  5271  5269 1
 5265  5271  5270 1
 5266  5273  5272 1
 5267  5274  5272 1
 5268  5274  5273 1
 5269  5276  5275 1
 5270  5277  5275 1
 5271  5277  5276 1
 5272  5279  5278 1
 5273  5280  5278 1
 5274  5280  5279 1
 5275  5282  5281 1
 5276  5283  5281 1
 5277  5283  5282 1
 5278  5285  5284 1
 5279  5286  5284 1
 5280  5286  5285 1
 5281  5288  5287 1
 5282  5289  5287 1
 5283  5289  5288 1
 5284  5291  5290 1
 5285  5292  5290 1
 5286  5292  5291 1
 5287  5294  5293 1
 5288  5295  5293 1
 5289  5295  5294 1
 5290  5297  5296 1
 5291  5298  5296 1
 5292  5298  5297 1
 5293  5300  5299 1
 5294  5301  5299 1
 5295  5301  5300 1
 5296  5303  5302 1
 5297  5304  5302 1
 5298  5304  5303 1
 5299  5306  5305 1
 5300  5307  5305 1
 5301  5307  5306 1
 5302  5309  5308 1
 5303  5310  5308 1
 5304  5310  5309 1
 5305  5312  5311 1
 5306  5313  5311 1
 5307  5313  5312 1
 5308  5315  5314 1
 5309  5316  5314 1
 5310  5316  5315 1
 5311  5318  5317 1
 5312  5319  5317 1
 5313  5319  5318 1
 5314  5321  5320 1
 5315  5322  5320 1
 5316  5322  5321 1
 5317  5324  5323 1
 5318  5325  5323 1
 5319  5325  5324 1
 5320  5327  5326 1
 5321  5328  5326 1
 5322  5328  5327 1
 5323  5330  5329 1
 5324  5331  5329 1
 5325  5331  5330 1
 5326  5333  5332 1
 5327  5334  5332 1
 5328  5334  5333 1
 5329  5336  5335 1
 5330  5337  5335 1
 5331  5337  5336 1
 5332  5339  5338 1
 5333  5340  5338 1
 5334  5340  5339 1
 5335  5342  5341 1
 5336  5343  5341 1
 5337  5343  5342 1
 5338  5345  5344 1
 5339  5346  5344 1
 5340  5346  5345 1
 5341  5348  5347 1
 5342  5349  5347 1
 5343  5349  5348 1
 5344  5351  5350 1
 5345  5352  5350 1
 5346  5352  5351 1
 5347  5354  5353 1
 5348  5355  5353 1
 5349  5355  5354 1
 5350  5357  5356 1
 5351  5358  5356 1
 5352  5358  5357 1
 5353  5360  5359 1
 5354  5361  5359 1
 5355  5361  5360 1
 5356  5363  5362 1
 5357  5364  5362 1
 5358  5364  5363 1
 5359  5366  5365 1
 5360  5367  5365 1
 5361  5367  5366 1
 5362  5369  5368 1
 5363  5370  5368 1
 5364  5370  5369 1
 5365  5372  5371 1
 5366  5373  5371 1
 5367  5373  5372 1
 5368  5375  5374 1
 5369  5376  5374 1
 5370  5376  5375 1
 5371  5378  5377 1
 5372  5379  5377 1
 5373  5379  5378 1
 5374  5381  5380 1
 5375  5382  5380 1
 5376  5382  5381 1
 5377  5384  5383 1
 5378  5385  5383 1
 5379  5385  5384 1
 5380  5387  5386 1
 5381  5388  5386 1
 5382  5388  5387 1
 5383  5390  5389 1
 5384  5391  5389 1
 5385  5391  5390 1
 5386  5393  5392 1
 5387  5394  5392 1
 5388  5394  5393 1
 5389  5396  5395 1
 5390  5397  5395 1
 5391  5397  5396 1
 5392  5399  5398 1
 5393  5400  5398 1
 5394  5400  5399 1
 5395  5402  5401 1
 5396  5403  5401 1
 5397  5403  5402 1
 5398  5405  5404 1
 5399  5406  5404 1
 5400  5406  5405 1
 5401  5408  5407 1
 5402  5409  5407 1
 5403  5409  5408 1
 5404  5411  5410 1
 5405  5412  5410 1
 5406  5412  5411 1
 5407  5414  5413 1
 5408  5415  5413 1
 5409  5415  5414 1
 5410  5417  5416 1
 5411  5418  5416 1
 5412  5418  5417 1
 5413  5420  5419 1
 5414  5421  5419 1
 5415  5421  5420 1
 5416  5423  5422 1
 5417  5424  5422 1
 5418  5424  5423 1
 5419  5426  5425 1
 5420  5427  5425 1
 5421  5427  5426 1
 5422  5429  5428 1
 5423  5430  5428 1
 5424  5430  5429 1
 5425  5432  5431 1
 5426  5433  5431 1
 5427  5433  5432 1
 5428  5435  5434 1
 5429  5436  5434 1
 5430  5436  5435 1
 5431  5438  5437 1
 5432  5439  5437 1
 5433  5439  5438 1
 5434  5441  5440 1
 5435  5442  5440 1
 5436  5442  5441 1
 5437  5444  5443 1
 5438  5445  5443 1
 5439  5445  5444 1
 5440  5447  5446 1
 5441  5448  5446 1
 5442  5448  5447 1
 5443  5450  5449 1
 5444  5451  5449 1
 5445  5451  5450 1
 5446  5453  5452 1
 5447  5454  5452 1
 5448  5454  5453 1
 5449  5456  5455 1
 5450  5457  5455 1
 5451  5457  5456 1
 5452  5459  5458 1
 5453  5460  5458 1
 5454  5460  5459 1
 5455  5462  5461 1
 5456  5463  5461 1
 5457  5463  5462 1
 5458  5465  5464 1
 5459  5466  5464 1
 5460  5466  5465 1
 5461  5468  5467 1
 5462  5469  5467 1
 5463  5469  5468 1
 5464  5471  5470 1
 5465  5472  5470 1
 5466  5472  5471 1
 5467  5474  5473 1
 5468  5475  5473 1
 5469  5475  5474 1
 5470  5477  5476 1
 5471  5478  5476 1
 5472  5478  5477 1
 5473  5480  5479 1
 5474  5481  5479 1
 5475  5481  5480 1
 5476  5483  5482 1
 5477  5484  5482 1
 5478  5484  5483 1
 5479  5486  5485 1
 5480  5487  5485 1
 5481  5487  5486 1
 5482  5489  5488 1
 5483  5490  5488 1
 5484  5490  5489 1
 5485  5492  5491 1
 5486  5493  5491 1
 5487  5493  5492 1
 5488  5495  5494 1
 5489  5496  5494 1
 5490  5496  5495 1
 5491  5498  5497 1
 5492  5499  5497 1
 5493  5499  5498 1
 5494  5501  5500 1
 5495  5502  5500 1
 5496  5502  5501 1
 5497  5504  5503 1
 5498  5505  5503 1
 5499  5505  5504 1
 5500  5507  5506 1
 5501  5508  5506 1
 5502  5508  5507 1
 5503  5510  5509 1
 5504  5511  5509 1
 5505  5511  5510 1
 5506  5513  5512 1
 5507  5514  5512 1
 5508  5514  5513 1
 5509  5516  5515 1
 5510  5517  5515 1
 5511  5517  5516 1
 5512  5519  5518 1
 5513  5520  5518 1
 5514  5520  5519 1
 5515  5522  5521 1
 5516  5523  5521 1
 5517  5523  5522 1
 5518  5525  5524 1
 5519  5526  5524 1
 5520  5526  5525 1
 5521  5528  5527 1
 5522  5529  5527 1
 5523  5529  5528 1
 5524  5531  5530 1
 5525  5532  5530 1
 5526  5532  5531 1
 5527  5534  5533 1
 5528  5535  5533 1
 5529  5535  5534 1
 5530  5537  5536 1
 5531  5538  5536 1
 5532  5538  5537 1
 5533  5540  5539 1
 5534  5541  5539 1
 5535  5541  5540 1
 5536  5543  5542 1
 5537  5544  5542 1
 5538  5544  5543 1
 5539  5546  5545 1
 5540  5547  5545 1
 5541  5547  5546 1
 5542  5549  5548 1
 5543  5550  5548 1
 5544  5550  5549 1
 5545  5552  5551 1
 5546  5553  5551 1
 5547  5553  5552 1
 5548  5555  5554 1
 5549  5556  5554 1
 5550  5556  5555 1
 5551  5558  5557 1
 5552  5559  5557 1
 5553  5559  5558 1
 5554  5561  5560 1
 5555  5562  5560 1
 5556  5562  5561 1
 5557  5564  5563 1
 5558  5565  5563 1
 5559  5565  5564 1
 5560  5567  5566 1
 5561  5568  5566 1
 5562  5568  5567 1
 5563  5570  5569 1
 5564  5571  5569 1
 5565  5571  5570 1
 5566  5573  5572 1
 5567  5574  5572 1
 5568  5574  5573 1
 5569  5576  5575 1
 5570  5577  5575 1
 5571  5577  5576 1
 5572  5579  5578 1
 5573  5580  5578 1
 5574  5580  5579 1
 5575  5582  5581 1
 5576  5583  5581 1
 5577  5583  5582 1
 5578  5585  5584 1
 5579  5586  5584 1
 5580  5586  5585 1
 5581  5588  5587 1
 5582  5589  5587 1
 5583  5589  5588 1
 5584  5591  5590 1
 5585  5592  5590 1
 5586  5592  5591 1
 5587  5594  5593 1
 5588  5595  5593 1
 5589  5595  5594 1
 5590  5597  5596 1
 5591  5598  5596 1
 5592  5598  5597 1
 5593  5600  5599 1
 5594  5601  5599 1
 5595  5601  5600 1
 5596  5603  5602 1
 5597  5604  5602 1
 5598  5604  5603 1
 5599  5606  5605 1
 5600  5607  5605 1
 5601  5607  5606 1
 5602  5609  5608 1
 5603  5610  5608 1
 5604  5610  5609 1
 5605  5612  5611 1
 5606  5613  5611 1
 5607  5613  5612 1
 5608  5615  5614 1
 5609  5616  5614 1
 5610  5616  5615 1
 5611  5618  5617 1
 5612  5619  5617 1
 5613  5619  5618 1
 5614  5621  5620 1
 5615  5622  5620 1
 5616  5622  5621 1
 5617  5624  5623 1
 5618  5625  5623 1
 5619  5625  5624 1
 5620  5627  5626 1
 5621  5628  5626 1
 5622  5628  5627 1
 5623  5630  5629 1
 5624  5631  5629 1
 5625  5631  5630 1
 5626  5633  5632 1
 5627  5634  5632 1
 5628  5634  5633 1
 5629  5636  5635 1
 5630  5637  5635 1
 5631  5637  5636 1
 5632  5639  5638 1
 5633  5640  5638 1
 5634  5640  5639 1
 5635  5642  5641 1
 5636  5643  5641 1
 5637  5643  5642 1
 5638  5645  5644 1
 5639  5646  5644 1
 5640  5646  5645 1
 5641  5648  5647 1
 5642  5649  5647 1
 5643  5649  5648 1
 5644  5651  5650 1
 5645  5652  5650 1
 5646  5652  5651 1
 5647  5654  5653 1
 5648  5655  5653 1
 5649  5655  5654 1
 5650  5657  5656 1
 5651  5658  5656 1
 5652  5658  5657 1
 5653  5660  5659 1
 5654  5661  5659 1
 5655  5661  5660 1
 5656  5663  5662 1
 5657  5664  5662 1
 5658  5664  5663 1
 5659  5666  5665 1
 5660  5667  5665 1
 5661  5667  5666 1
 5662  5669  5668 1
 5663  5670  5668 1
 5664  5670  5669 1
 5665  5672  5671 1
 5666  5673  5671 1
 5667  5673  5672 1
 5668  5675  5674 1
 5669  5676  5674 1
 5670  5676  5675 1
 5671  5678  5677 1
 5672  5679  5677 1
 5673  5679  5678 1
 5674  5681  5680 1
 5675  5682  5680 1
 5676  5682  5681 1
 5677  5684  5683 1
 5678  5685  5683 1
 5679  5685  5684 1
 5680  5687  5686 1
 5681  5688  5686 1
 5682  5688  5687 1
 5683  5690  5689 1
 5684  5691  5689 1
 5685  5691  5690 1
 5686  5693  5692 1
 5687  5694  5692 1
 5688  5694  5693 1
 5689  5696  5695 1
 5690  5697  5695 1
 5691  5697  5696 1
 5692  5699  5698 1
 5693  5700  5698 1
 5694  5700  5699 1
 5695  5702  5701 1
 5696  5703  5701 1
 5697  5703  5702 1
 5698  5705  5704 1
 5699  5706  5704 1
 5700  5706  5705 1
 5701  5708  5707 1
 5702  5709  5707 1
 5703  5709  5708 1
 5704  5711  5710 1
 5705  5712  5710 1
 5706  5712  5711 1
 5707  5714  5713 1
 5708  5715  5713 1
 5709  5715  5714 1
 5710  5717  5716 1
 5711  5718  5716 1
 5712  5718  5717 1
 5713  5720  5719 1
 5714  5721  5719 1
 5715  5721  5720 1
 5716  5723  5722 1
 5717  5724  5722 1
 5718  5724  5723 1
 5719  5726  5725 1
 5720  5727  5725 1
 5721  5727  5726 1
 5722  5729  5728 1
 5723  5730  5728 1
 5724  5730  5729 1
 5725  5732  5731 1
 5726  5733  5731 1
 5727  5733  5732 1
 5728  5735  5734 1
 5729  5736  5734 1
 5730  5736  5735 1
 5731  5738  5737 1
 5732  5739  5737 1
 5733  5739  5738 1
 5734  5741  5740 1
 5735  5742  5740 1
 5736  5742  5741 1
 5737  5744  5743 1
 5738  5745  5743 1
 5739  5745  5744 1
 5740  5747  5746 1
 5741  5748  5746 1
 5742  5748  5747 1
 5743  5750  5749 1
 5744  5751  5749 1
 5745  5751  5750 1
 5746  5753  5752 1
 5747  5754  5752 1
 5748  5754  5753 1
 5749  5756  5755 1
 5750  5757  5755 1
 5751  5757  5756 1
 5752  5759  5758 1
 5753  5760  5758 1
 5754  5760  5759 1
 5755  5762  5761 1
 5756  5763  5761 1
 5757  5763  5762 1
 5758  5765  5764 1
 5759  5766  5764 1
 5760  5766  5765 1
 5761  5768  5767 1
 5762  5769  5767 1
 5763  5769  5768 1
 5764  5771  5770 1
 5765  5772  5770 1
 5766  5772  5771 1
 5767  5774  5773 1
 5768  5775  5773 1
 5769  5775  5774 1
 5770  5777  5776 1
 5771  5778  5776 1
 5772  5778  5777 1
 5773  5780  5779 1
 5774  5781  5779 1
 5775  5781  5780 1
 5776  5783  5782 1
 5777  5784  5782 1
 5778  5784  5783 1
 5779  5786  5785 1
 5780  5787  5785 1
 5781  5787  5786 1
 5782  5789  5788 1
 5783  5790  5788 1
 5784  5790  5789 1
 5785  5792  5791 1
 5786  5793  5791 1
 5787  5793  5792 1
 5788  5795  5794 1
 5789  5796  5794 1
 5790  5796  5795 1
 5791  5798  5797 1
 5792  5799  5797 1
 5793  5799  5798 1
 5794  5801  5800 1
 5795  5802  5800 1
 5796  5802  5801 1
 5797  5804  5803 1
 5798  5805  5803 1
 5799  5805  5804 1
 5800  5807  5806 1
 5801  5808  5806 1
 5802  5808  5807 1
 5803  5810  5809 1
 5804  5811  5809 1
 5805  5811  5810 1
 5806  5813  5812 1
 5807  5814  5812 1
 5808  5814  5813 1
 5809  5816  5815 1
 5810  5817  5815 1
 5811  5817  5816 1
 5812  5819  5818 1
 5813  5820  5818 1
 5814  5820  5819 1
 5815  5822  5821 1
 5816  5823  5821 1
 5817  5823  5822 1
 5818  5825  5824 1
 5819  5826  5824 1
 5820  5826  5825 1
 5821  5828  5827 1
 5822  5829  5827 1
 5823  5829  5828 1
 5824  5831  5830 1
 5825  5832  5830 1
 5826  5832  5831 1
 5827  5834  5833 1
 5828  5835  5833 1
 5829  5835  5834 1
 5830  5837  5836 1
 5831  5838  5836 1
 5832  5838  5837 1
 5833  5840  5839 1
 5834  5841  5839 1
 5835  5841  5840 1
 5836  5843  5842 1
 5837  5844  5842 1
 5838  5844  5843 1
 5839  5846  5845 1
 5840  5847  5845 1
 5841  5847  5846 1
 5842  5849  5848 1
 5843  5850  5848 1
 5844  5850  5849 1
 5845  5852  5851 1
 5846  5853  5851 1
 5847  5853  5852 1
 5848  5855  5854 1
 5849  5856  5854 1
 5850  5856  5855 1
 5851  5858  5857 1
 5852  5859  5857 1
 5853  5859  5858 1
 5854  5861  5860 1
 5855  5862  5860 1
 5856  5862  5861 1
 5857  5864  5863 1
 5858  5865  5863 1
 5859  5865  5864 1
 5860  5867  5866 1
 5861  5868  5866 1
 5862  5868  5867 1
 5863  5870  5869 1
 5864  5871  5869 1
 5865  5871  5870 1
 5866  5873  5872 1
 5867  5874  5872 1
 5868  5874  5873 1
 5869  5876  5875 1
 5870  5877  5875 1
 5871  5877  5876 1
 5872  5879  5878 1
 5873  5880  5878 1
 5874  5880  5879 1
 5875  5882  5881 1
 5876  5883  5881 1
 5877  5883  5882 1
 5878  5885  5884 1
 5879  5886  5884 1
 5880  5886  5885 1
 5881  5888  5887 1
 5882  5889  5887 1
 5883  5889  5888 1
 5884  5891  5890 1
 5885  5892  5890 1
 5886  5892  5891 1
 5887  5894  5893 1
 5888  5895  5893 1
 5889  5895  5894 1
 5890  5897  5896 1
 5891  5898  5896 1
 5892  5898  5897 1
 5893  5900  5899 1
 5894  5901  5899 1
 5895  5901  5900 1
 5896  5903  5902 1
 5897  5904  5902 1
 5898  5904  5903 1
 5899  5906  5905 1
 5900  5907  5905 1
 5901  5907  5906 1
 5902  5909  5908 1
 5903  5910  5908 1
 5904  5910  5909 1
 5905  5912  5911 1
 5906  5913  5911 1
 5907  5913  5912 1
 5908  5915  5914 1
 5909  5916  5914 1
 5910  5916  5915 1
 5911  5918  5917 1
 5912  5919  5917 1
 5913  5919  5918 1
 5914  5921  5920 1
 5915  5922  5920 1
 5916  5922  5921 1
 5917  5924  5923 1
 5918  5925  5923 1
 5919  5925  5924 1
 5920  5927  5926 1
 5921  5928  5926 1
 5922  5928  5927 1
 5923  5930  5929 1
 5924  5931  5929 1
 5925  5931  5930 1
 5926  5933  5932 1
 5927  5934  5932 1
 5928  5934  5933 1
 5929  5936  5935 1
 5930  5937  5935 1
 5931  5937  5936 1
 5932  5939  5938 1
 5933  5940  5938 1
 5934  5940  5939 1
 5935  5942  5941 1
 5936  5943  5941 1
 5937  5943  5942 1
 5938  5945  5944 1
 5939  5946  5944 1
 5940  5946  5945 1
 5941  5948  5947 1
 5942  5949  5947 1
 5943  5949  5948 1
 5944  5951  5950 1
 5945  5952  5950 1
 5946  5952  5951 1
 5947  5954  5953 1
 5948  5955  5953 1
 5949  5955  5954 1
 5950  5957  5956 1
 5951  5958  5956 1
 5952  5958  5957 1
 5953  5960  5959 1
 5954  5961  5959 1
 5955  5961  5960 1
 5956  5963  5962 1
 5957  5964  5962 1
 5958  5964  5963 1
 5959  5966  5965 1
 5960  5967  5965 1
 5961  5967  5966 1
 5962  5969  5968 1
 5963  5970  5968 1
 5964  5970  5969 1
 5965  5972  5971 1
 5966  5973  5971 1
 5967  5973  5972 1
 5968  5975  5974 1
 5969  5976  5974 1
 5970  5976  5975 1
 5971  5978  5977 1
 5972  5979  5977 1
 5973  5979  5978 1
 5974  5981  5980 1
 5975  5982  5980 1
 5976  5982  5981 1
 5977  5984  5983 1
 5978  5985  5983 1
 5979  5985  5984 1
 5980  5987  5986 1
 5981  5988  5986 1
 5982  5988  5987 1
 5983  5990  5989 1
 5984  5991  5989 1
 5985  5991  5990 1
 5986  5993  5992 1
 5987  5994  5992 1
 5988  5994  5993 1
 5989  5996  5995 1
 5990  5997  5995 1
 5991  5997  5996 1
 5992  5999  5998 1
 5993  6000  5998 1
 5994  6000  5999 1
 5995  6002  6001 1
 5996  6003  6001 1
 5997  6003  6002 1
 5998  6005  6004 1
 5999  6006  6004 1
 6000  6006  6005 1
 6001  6008  6007 1
 6002  6009  6007 1
 6003  6009  6008 1
 6004  6011  6010 1
 6005  6012  6010 1
 6006  6012  6011 1
 6007  6014  6013 1
 6008  6015  6013 1
 6009  6015  6014 1
 6010  6017  6016 1
 6011  6018  6016 1
 6012  6018  6017 1
 6013  6020  6019 1
 6014  6021  6019 1
 6015  6021  6020 1
 6016  6023  6022 1
 6017  6024  6022 1
 6018  6024  6023 1
 6019  6026  6025 1
 6020  6027  6025 1
 6021  6027  6026 1
 6022  6029  6028 1
 6023  6030  6028 1
 6024  6030  6029 1
 6025  6032  6031 1
 6026  6033  6031 1
 6027  6033  6032 1
 6028  6035  6034 1
 6029  6036  6034 1
 6030  6036  6035 1
 6031  6038  6037 1
 6032  6039  6037 1
 6033  6039  6038 1
 6034  6041  6040 1
 6035  6042  6040 1
 6036  6042  6041 1
 6037  6044  6043 1
 6038  6045  6043 1
 6039  6045  6044 1
 6040  6047  6046 1
 6041  6048  6046 1
 6042  6048  6047 1
 6043  6050  6049 1
 6044  6051  6049 1
 6045  6051  6050 1
 6046  6053  6052 1
 6047  6054  6052 1
 6048  6054  6053 1
 6049  6056  6055 1
 6050  6057  6055 1
 6051  6057  6056 1
 6052  6059  6058 1
 6053  6060  6058 1
 6054  6060  6059 1
 6055  6062  6061 1
 6056  6063  6061 1
 6057  6063  6062 1
 6058  6065  6064 1
 6059  6066  6064 1
 6060  6066  6065 1
 6061  6068  6067 1
 6062  6069  6067 1
 6063  6069  6068 1
 6064  6071  6070 1
 6065  6072  6070 1
 6066  6072  6071 1
 6067  6074  6073 1
 6068  6075  6073 1
 6069  6075  6074 1
 6070  6077  6076 1
 6071  6078  6076 1
 6072  6078  6077 1
 6073  6080  6079 1
 6074  6081  6079 1
 6075  6081  6080 1
 6076  6083  6082 1
 6077  6084  6082 1
 6078  6084  6083 1
 6079  6086  6085 1
 6080  6087  6085 1
 6081  6087  6086 1
 6082  6089  6088 1
 6083  6090  6088 1
 6084  6090  6089 1
 6085  6092  6091 1
 6086  6093  6091 1
 6087  6093  6092 1
 6088  6095  6094 1
 6089  6096  6094 1
 6090  6096  6095 1
 6091  6098  6097 1
 6092  6099  6097 1
 6093  6099  6098 1
 6094  6101  6100 1
 6095  6102  6100 1
 6096  6102  6101 1
 6097  6104  6103 1
 6098  6105  6103 1
 6099  6105  6104 1
 6100  6107  6106 1
 6101  6108  6106 1
 6102  6108  6107 1
 6103  6110  6109 1
 6104  6111  6109 1
 6105  6111  6110 1
 6106  6113  6112 1
 6107  6114  6112 1
 6108  6114  6113 1
 6109  6116  6115 1
 6110  6117  6115 1
 6111  6117  6116 1
 6112  6119  6118 1
 6113  6120  6118 1
 6114  6120  6119 1
 6115  6122  6121 1
 6116  6123  6121 1
 6117  6123  6122 1
 6118  6125  6124 1
 6119  6126  6124 1
 6120  6126  6125 1
 6121  6128  6127 1
 6122  6129  6127 1
 6123  6129  6128 1
 6124  6131  6130 1
 6125  6132  6130 1
 6126  6132  6131 1
 6127  6134  6133 1
 6128  6135  6133 1
 6129  6135  6134 1
 6130  6137  6136 1
 6131  6138  6136 1
 6132  6138  6137 1
 6133  6140  6139 1
 6134  6141  6139 1
 6135  6141  6140 1
 6136  6143  6142 1
 6137  6144  6142 1
 6138  6144  6143 1
 6139  6146  6145 1
 6140  6147  6145 1
 6141  6147  6146 1
 6142  6149  6148 1
 6143  6150  6148 1
 6144  6150  6149 1
 6145  6152  6151 1
 6146  6153  6151 1
 6147  6153  6152 1
 6148  6155  6154 1
 6149  6156  6154 1
 6150  6156  6155 1
 6151  6158  6157 1
 6152  6159  6157 1
 6153  6159  6158 1
 6154  6161  6160 1
 6155  6162  6160 1
 6156  6162  6161 1
 6157  6164  6163 1
 6158  6165  6163 1
 6159  6165  6164 1
 6160  6167  6166 1
 6161  6168  6166 1
 6162  6168  6167 1
 6163  6170  6169 1
 6164  6171  6169 1
 6165  6171  6170 1
 6166  6173  6172 1
 6167  6174  6172 1
 6168  6174  6173 1
 6169  6176  6175 1
 6170  6177  6175 1
 6171  6177  6176 1
 6172  6179  6178 1
 6173  6180  6178 1
 6174  6180  6179 1
 6175  6182  6181 1
 6176  6183  6181 1
 6177  6183  6182 1
 6178  6185  6184 1
 6179  6186  6184 1
 6180  6186  6185 1
 6181  6188  6187 1
 6182  6189  6187 1
 6183  6189  6188 1
 6184  6191  6190 1
 6185  6192  6190 1
 6186  6192  6191 1
 6187  6194  6193 1
 6188  6195  6193 1
 6189  6195  6194 1
 6190  6197  6196 1
 6191  6198  6196 1
 6192  6198  6197 1
 6193  6200  6199 1
 6194  6201  6199 1
 6195  6201  6200 1
 6196  6203  6202 1
 6197  6204  6202 1
 6198  6204  6203 1
 6199  6206  6205 1
 6200  6207  6205 1
 6201  6207  6206 1
 6202  6209  6208 1
 6203  6210  6208 1
 6204  6210  6209 1
 6205  6212  6211 1
 6206  6213  6211 1
 6207  6213  6212 1
 6208  6215  6214 1
 6209  6216  6214 1
 6210  6216  6215 1
 6211  6218  6217 1
 6212  6219  6217 1
 6213  6219  6218 1
 6214  6221  6220 1
 6215  6222  6220 1
 6216  6222  6221 1
 6217  6224  6223 1
 6218  6225  6223 1
 6219  6225  6224 1
 6220  6227  6226 1
 6221  6228  6226 1
 6222  6228  6227 1
 6223  6230  6229 1
 6224  6231  6229 1
 6225  6231  6230 1
 6226  6233  6232 1
 6227  6234  6232 1
 6228  6234  6233 1
 6229  6236  6235 1
 6230  6237  6235 1
 6231  6237  6236 1
 6232  6239  6238 1
 6233  6240  6238 1
 6234  6240  6239 1
 6235  6242  6241 1
 6236  6243  6241 1
 6237  6243  6242 1
 6238  6245  6244 1
 6239  6246  6244 1
 6240  6246  6245 1
 6241  6248  6247 1
 6242  6249  6247 1
 6243  6249  6248 1
 6244  6251  6250 1
 6245  6252  6250 1
 6246  6252  6251 1
 6247  6254  6253 1
 6248  6255  6253 1
 6249  6255  6254 1
 6250  6257  6256 1
 6251  6258  6256 1
 6252  6258  6257 1
 6253  6260  6259 1
 6254  6261  6259 1
 6255  6261  6260 1
 6256  6263  6262 1
 6257  6264  6262 1
 6258  6264  6263 1
 6259  6266  6265 1
 6260  6267  6265 1
 6261  6267  6266 1
 6262  6269  6268 1
 6263  6270  6268 1
 6264  6270  6269 1
 6265  6272  6271 1
 6266  6273  6271 1
 6267  6273  6272 1
 6268  6275  6274 1
 6269  6276  6274 1
 6270  6276  6275 1
 6271  6278  6277 1
 6272  6279  6277 1
 6273  6279  6278 1
 6274  6281  6280 1
 6275  6282  6280 1
 6276  6282  6281 1
 6277  6284  6283 1
 6278  6285  6283 1
 6279  6285  6284 1
 6280  6287  6286 1
 6281  6288  6286 1
 6282  6288  6287 1
 6283  6290  6289 1
 6284  6291  6289 1
 6285  6291  6290 1
 6286  6293  6292 1
 6287  6294  6292 1
 6288  6294  6293 1
 6289  6296  6295 1
 6290  6297  6295 1
 6291  6297  6296 1
 6292  6299  6298 1
 6293  6300  6298 1
 6294  6300  6299 1
 6295  6302  6301 1
 6296  6303  6301 1
 6297  6303  6302 1
 6298  6305  6304 1
 6299  6306  6304 1
 6300  6306  6305 1
 6301  6308  6307 1
 6302  6309  6307 1
 6303  6309  6308 1
 6304  6311  6310 1
 6305  6312  6310 1
 6306  6312  6311 1
 6307  6314  6313 1
 6308  6315  6313 1
 6309  6315  6314 1
 6310  6317  6316 1
 6311  6318  6316 1
 6312  6318  6317 1
 6313  6320  6319 1
 6314  6321  6319 1
 6315  6321  6320 1
 6316  6323  6322 1
 6317  6324  6322 1
 6318  6324  6323 1
 6319  6326  6325 1
 6320  6327  6325 1
 6321  6327  6326 1
 6322  6329  6328 1
 6323  6330  6328 1
 6324  6330  6329 1
 6325  6332  6331 1
 6326  6333  6331 1
 6327  6333  6332 1
 6328  6335  6334 1
 6329  6336  6334 1
 6330  6336  6335 1
 6331  6338  6337 1
 6332  6339  6337 1
 6333  6339  6338 1
 6334  6341  6340 1
 6335  6342  6340 1
 6336  6342  6341 1
 6337  6344  6343 1
 6338  6345  6343 1
 6339  6345  6344 1
 6340  6347  6346 1
 6341  6348  6346 1
 6342  6348  6347 1
 6343  6350  6349 1
 6344  6351  6349 1
 6345  6351  6350 1
 6346  6353  6352 1
 6347  6354  6352 1
 6348  6354  6353 1
 6349  6356  6355 1
 6350  6357  6355 1
 6351  6357  6356 1
 6352  6359  6358 1
 6353  6360  6358 1
 6354  6360  6359 1
 6355  6362  6361 1
 6356  6363  6361 1
 6357  6363  6362 1
 6358  6365  6364 1
 6359  6366  6364 1
 6360  6366  6365 1
 6361  6368  6367 1
 6362  6369  6367 1
 6363  6369  6368 1
 6364  6371  6370 1
 6365  6372  6370 1
 6366  6372  6371 1
 6367  6374  6373 1
 6368  6375  6373 1
 6369  6375  6374 1
 6370  6377  6376 1
 6371  6378  6376 1
 6372  6378  6377 1
 6373  6380  6379 1
 6374  6381  6379 1
 6375  6381  6380 1
 6376  6383  6382 1
 6377  6384  6382 1
 6378  6384  6383 1
 6379  6386  6385 1
 6380  6387  6385 1
 6381  6387  6386 1
 6382  6389  6388 1
 6383  6390  6388 1
 6384  6390  6389 1
 6385  6392  6391 1
 6386  6393  6391 1
 6387  6393  6392 1
 6388  6395  6394 1
 6389  6396  6394 1
 6390  6396  6395 1
 6391  6398  6397 1
 6392  6399  6397 1
 6393  6399  6398 1
 6394  6401  6400 1
 6395  6402  6400 1
 6396  6402  6401 1
 6397  6404  6403 1
 6398  6405  6403 1
 6399  6405  6404 1
 6400  6407  6406 1
 6401  6408  6406 1
 6402  6408  6407 1
 6403  6410  6409 1
 6404  6411  6409 1
 6405  6411  6410 1
 6406  6413  6412 1
 6407  6414  6412 1
 6408  6414  6413 1
 6409  6416  6415 1
 6410  6417  6415 1
 6411  6417  6416 1
 6412  6419  6418 1
 6413  6420  6418 1
 6414  6420  6419 1
 6415  6422  6421 1
 6416  6423  6421 1
 6417  6423  6422 1
 6418  6425  6424 1
 6419  6426  6424 1
 6420  6426  6425 1
 6421  6428  6427 1
 6422  6429  6427 1
 6423  6429  6428 1
 6424  6431  6430 1
 6425  6432  6430 1
 6426  6432  6431 1
 6427  6434  6433 1
 6428  6435  6433 1
 6429  6435  6434 1
 6430  6437  6436 1
 6431  6438  6436 1
 6432  6438  6437 1
 6433  6440  6439 1
 6434  6441  6439 1
 6435  6441  6440 1
 6436  6443  6442 1
 6437  6444  6442 1
 6438  6444  6443 1
 6439  6446  6445 1
 6440  6447  6445 1
 6441  6447  6446 1
 6442  6449  6448 1
 6443  6450  6448 1
 6444  6450  6449 1
 6445  6452  6451 1
 6446  6453  6451 1
 6447  6453  6452 1
 6448  6455  6454 1
 6449  6456  6454 1
 6450  6456  6455 1
 6451  6458  6457 1
 6452  6459  6457 1
 6453  6459  6458 1
 6454  6461  6460 1
 6455  6462  6460 1
 6456  6462  6461 1
 6457  6464  6463 1
 6458  6465  6463 1
 6459  6465  6464 1
 6460  6467  6466 1
 6461  6468  6466 1
 6462  6468  6467 1
 6463  6470  6469 1
 6464  6471  6469 1
 6465  6471  6470 1
 6466  6473  6472 1
 6467  6474  6472 1
 6468  6474  6473 1
 6469  6476  6475 1
 6470  6477  6475 1
 6471  6477  6476 1
 6472  6479  6478 1
 6473  6480  6478 1
 6474  6480  6479 1
 6475  6482  6481 1
 6476  6483  6481 1
 6477  6483  6482 1
 6478  6485  6484 1
 6479  6486  6484 1
 6480  6486  6485 1
 6481  6488  6487 1
 6482  6489  6487 1
 6483  6489  6488 1
 6484  6491  6490 1
 6485  6492  6490 1
 6486  6492  6491 1
 6487  6494  6493 1
 6488  6495  6493 1
 6489  6495  6494 1
 6490  6497  6496 1
 6491  6498  6496 1
 6492  6498  6497 1
 6493  6500  6499 1
 6494  6501  6499 1
 6495  6501  6500 1
 6496  6503  6502 1
 6497  6504  6502 1
 6498  6504  6503 1
 6499  6506  6505 1
 6500  6507  6505 1
 6501  6507  6506 1
 6502  6509  6508 1
 6503  6510  6508 1
 6504  6510  6509 1
 6505  6512  6511 1
 6506  6513  6511 1
 6507  6513  6512 1
 6508  6515  6514 1
 6509  6516  6514 1
 6510  6516  6515 1
 6511  6518  6517 1
 6512  6519  6517 1
 6513  6519  6518 1
 6514  6521  6520 1
 6515  6522  6520 1
 6516  6522  6521 1
 6517  6524  6523 1
 6518  6525  6523 1
 6519  6525  6524 1
 6520  6527  6526 1
 6521  6528  6526 1
 6522  6528  6527 1
 6523  6530  6529 1
 6524  6531  6529 1
 6525  6531  6530 1
 6526  6533  6532 1
 6527  6534  6532 1
 6528  6534  6533 1
 6529  6536  6535 1
 6530  6537  6535 1
 6531  6537  6536 1
 6532  6539  6538 1
 6533  6540  6538 1
 6534  6540  6539 1
 6535  6542  6541 1
 6536  6543  6541 1
 6537  6543  6542 1
 6538  6545  6544 1
 6539  6546  6544 1
 6540  6546  6545 1
 6541  6548  6547 1
 6542  6549  6547 1
 6543  6549  6548 1
 6544  6551  6550 1
 6545  6552  6550 1
 6546  6552  6551 1
 6547  6554  6553 1
 6548  6555  6553 1
 6549  6555  6554 1
 6550  6557  6556 1
 6551  6558  6556 1
 6552  6558  6557 1
 6553  6560  6559 1
 6554  6561  6559 1
 6555  6561  6560 1
 6556  6563  6562 1
 6557  6564  6562 1
 6558  6564  6563 1
 6559  6566  6565 1
 6560  6567  6565 1
 6561  6567  6566 1
 6562  6569  6568 1
 6563  6570  6568 1
 6564  6570  6569 1
 6565  6572  6571 1
 6566  6573  6571 1
 6567  6573  6572 1
 6568  6575  6574 1
 6569  6576  6574 1
 6570  6576  6575 1
 6571  6578  6577 1
 6572  6579  6577 1
 6573  6579  6578 1
 6574  6581  6580 1
 6575  6582  6580 1
 6576  6582  6581 1
 6577  6584  6583 1
 6578  6585  6583 1
 6579  6585  6584 1
 6580  6587  6586 1
 6581  6588  6586 1
 6582  6588  6587 1
 6583  6590  6589 1
 6584  6591  6589 1
 6585  6591  6590 1
 6586  6593  6592 1
 6587  6594  6592 1
 6588  6594  6593 1
 6589  6596  6595 1
 6590  6597  6595 1
 6591  6597  6596 1
 6592  6599  6598 1
 6593  6600  6598 1
 6594  6600  6599 1
 6595  6602  6601 1
 6596  6603  6601 1
 6597  6603  6602 1
 6598  6605  6604 1
 6599  6606  6604 1
 6600  6606  6605 1
 6601  6608  6607 1
 6602  6609  6607 1
 6603  6609  6608 1
 6604  6611  6610 1
 6605  6612  6610 1
 6606  6612  6611 1
 6607  6614  6613 1
 6608  6615  6613 1
 6609  6615  6614 1
 6610  6617  6616 1
 6611  6618  6616 1
 6612  6618  6617 1
 6613  6620  6619 1
 6614  6621  6619 1
 6615  6621  6620 1
 6616  6623  6622 1
 6617  6624  6622 1
 6618  6624  6623 1
 6619  6626  6625 1
 6620  6627  6625 1
 6621  6627  6626 1
 6622  6629  6628 1
 6623  6630  6628 1
 6624  6630  6629 1
 6625  6632  6631 1
 6626  6633  6631 1
 6627  6633  6632 1
 6628  6635  6634 1
 6629  6636  6634 1
 6630  6636  6635 1
 6631  6638  6637 1
 6632  6639  6637 1
 6633  6639  6638 1
 6634  6641  6640 1
 6635  6642  6640 1
 6636  6642  6641 1
 6637  6644  6643 1
 6638  6645  6643 1
 6639  6645  6644 1
 6640  6647  6646 1
 6641  6648  6646 1
 6642  6648  6647 1
 6643  6650  6649 1
 6644  6651  6649 1
 6645  6651  6650 1
 6646  6653  6652 1
 6647  6654  6652 1
 6648  6654  6653 1
 6649  6656  6655 1
 6650  6657  6655 1
 6651  6657  6656 1
 6652  6659  6658 1
 6653  6660  6658 1
 6654  6660  6659 1
 6655  6662  6661 1
 6656  6663  6661 1
 6657  6663  6662 1
 6658  6665  6664 1
 6659  6666  6664 1
 6660  6666  6665 1
 6661  6668  6667 1
 6662  6669  6667 1
 6663  6669  6668 1
 6664  6671  6670 1
 6665  6672  6670 1
 6666  6672  6671 1
 6667  6674  6673 1
 6668  6675  6673 1
 6669  6675  6674 1
 6670  6677  6676 1
 6671  6678  6676 1
 6672  6678  6677 1
 6673  6680  6679 1
 6674  6681  6679 1
 6675  6681  6680 1
 6676  6683  6682 1
 6677  6684  6682 1
 6678  6684  6683 1
 6679  6686  6685 1
 6680  6687  6685 1
 6681  6687  6686 1
 6682  6689  6688 1
 6683  6690  6688 1
 6684  6690  6689 1
 6685  6692  6691 1
 6686  6693  6691 1
 6687  6693  6692 1
 6688  6695  6694 1
 6689  6696  6694 1
 6690  6696  6695 1
 6691  6698  6697 1
 6692  6699  6697 1
 6693  6699  6698 1
 6694  6701  6700 1
 6695  6702  6700 1
 6696  6702  6701 1
 6697  6704  6703 1
 6698  6705  6703 1
 6699  6705  6704 1
 6700  6707  6706 1
 6701  6708  6706 1
 6702  6708  6707 1
 6703  6710  6709 1
 6704  6711  6709 1
 6705  6711  6710 1
 6706  6713  6712 1
 6707  6714  6712 1
 6708  6714  6713 1
 6709  6716  6715 1
 6710  6717  6715 1
 6711  6717  6716 1
 6712  6719  6718 1
 6713  6720  6718 1
 6714  6720  6719 1
 6715  6722  6721 1
 6716  6723  6721 1
 6717  6723  6722 1
 6718  6725  6724 1
 6719  6726  6724 1
 6720  6726  6725 1
 6721  6728  6727 1
 6722  6729  6727 1
 6723  6729  6728 1
 6724  6731  6730 1
 6725  6732  6730 1
 6726  6732  6731 1
 6727  6734  6733 1
 6728  6735  6733 1
 6729  6735  6734 1
 6730  6737  6736 1
 6731  6738  6736 1
 6732  6738  6737 1
 6733  6740  6739 1
 6734  6741  6739 1
 6735  6741  6740 1
 6736  6743  6742 1
 6737  6744  6742 1
 6738  6744  6743 1
 6739  6746  6745 1
 6740  6747  6745 1
 6741  6747  6746 1
 6742  6749  6748 1
 6743  6750  6748 1
 6744  6750  6749 1
 6745  6752  6751 1
 6746  6753  6751 1
 6747  6753  6752 1
 6748  6755  6754 1
 6749  6756  6754 1
 6750  6756  6755 1
 6751  6758  6757 1
 6752  6759  6757 1
 6753  6759  6758 1
 6754  6761  6760 1
 6755  6762  6760 1
 6756  6762  6761 1
 6757  6764  6763 1
 6758  6765  6763 1
 6759  6765  6764 1
 6760  6767  6766 1
 6761  6768  6766 1
 6762  6768  6767 1
 6763  6770  6769 1
 6764  6771  6769 1
 6765  6771  6770 1
 6766  6773  6772 1
 6767  6774  6772 1
 6768  6774  6773 1
 6769  6776  6775 1
 6770  6777  6775 1
 6771  6777  6776 1
 6772  6779  6778 1
 6773  6780  6778 1
 6774  6780  6779 1
 6775  6782  6781 1
 6776  6783  6781 1
 6777  6783  6782 1
 6778  6785  6784 1
 6779  6786  6784 1
 6780  6786  6785 1
 6781  6788  6787 1
 6782  6789  6787 1
 6783  6789  6788 1
 6784  6791  6790 1
 6785  6792  6790 1
 6786  6792  6791 1
 6787  6794  6793 1
 6788  6795  6793 1
 6789  6795  6794 1
 6790  6797  6796 1
 6791  6798  6796 1
 6792  6798  6797 1
 6793  6800  6799 1
 6794  6801  6799 1
 6795  6801  6800 1
 6796  6803  6802 1
 6797  6804  6802 1
 6798  6804  6803 1
@<TRIPOS>SUBSTRUCTURE
      1 MGO               1 ****               0 ****  **** 
      2 MGO              22 ****               0 ****  **** 
      3 MGO              43 ****               0 ****  **** 
      4 MGO              64 ****               0 ****  **** 
      5 MGO              85 ****               0 ****  **** 
      6 MGO             106 ****               0 ****  **** 
      7 MGO             127 ****               0 ****  **** 
      8 BEN             148 ****               0 ****  **** 
      9 Na+             162 ****               0 ****  **** 
     10 Na+             163 ****               0 ****  **** 
     11 Na+             164 ****               0 ****  **** 
     12 Na+             165 ****               0 ****  **** 
     13 Na+             166 ****               0 ****  **** 
     14 Na+             167 ****               0 ****  **** 
     15 Na+             168 ****               0 ****  **** 
     16 Cl-             169 ****               0 ****  **** 
     17 Cl-             170 ****               0 ****  **** 
     18 Cl-             171 ****               0 ****  **** 
     19 Cl-             172 ****               0 ****  **** 
     20 Cl-             173 ****               0 ****  **** 
     21 Cl-             174 ****               0 ****  **** 
     22 WAT             175 ****               0 ****  **** 
     23 WAT             178 ****               0 ****  **** 
     24 WAT             181 ****               0 ****  **** 
     25 WAT             184 ****               0 ****  **** 
     26 WAT             187 ****               0 ****  **** 
     27 WAT             190 ****               0 ****  **** 
     28 WAT             193 ****               0 ****  **** 
     29 WAT             196 ****               0 ****  **** 
     30 WAT             199 ****               0 ****  **** 
     31 WAT             202 ****               0 ****  **** 
     32 WAT             205 ****               0 ****  **** 
     33 WAT             208 ****               0 ****  **** 
     34 WAT             211 ****               0 ****  **** 
     35 WAT             214 ****               0 ****  **** 
     36 WAT             217 ****               0 ****  **** 
     37 WAT             220 ****               0 ****  **** 
     38 WAT             223 ****               0 ****  **** 
     39 WAT             226 ****               0 ****  **** 
     40 WAT             229 ****               0 ****  **** 
     41 WAT             232 ****               0 ****  **** 
     42 WAT             235 ****               0 ****  **** 
     43 WAT             238 ****               0 ****  **** 
     44 WAT             241 ****               0 ****  **** 
     45 WAT             244 ****               0 ****  **** 
     46 WAT             247 ****               0 ****  **** 
     47 WAT             250 ****               0 ****  **** 
     48 WAT             253 ****               0 ****  **** 
     49 WAT             256 ****               0 ****  **** 
     50 WAT             259 ****               0 ****  **** 
     51 WAT             262 ****               0 ****  **** 
     52 WAT             265 ****               0 ****  **** 
     53 WAT             268 ****               0 ****  **** 
     54 WAT             271 ****               0 ****  **** 
     55 WAT             274 ****               0 ****  **** 
     56 WAT             277 ****               0 ****  **** 
     57 WAT             280 ****               0 ****  **** 
     58 WAT             283 ****               0 ****  **** 
     59 WAT             286 ****               0 ****  **** 
     60 WAT             289 ****               0 ****  **** 
     61 WAT             292 ****               0 ****  **** 
     62 WAT             295 ****               0 ****  **** 
     63 WAT             298 ****               0 ****  **** 
     64 WAT             301 ****               0 ****  **** 
     65 WAT             304 ****               0 ****  **** 
     66 WAT             307 ****               0 ****  **** 
     67 WAT             310 ****               0 ****  **** 
     68 WAT             313 ****               0 ****  **** 
     69 WAT             316 ****               0 ****  **** 
     70 WAT             319 ****               0 ****  **** 
     71 WAT             322 ****               0 ****  **** 
     72 WAT             325 ****               0 ****  **** 
     73 WAT             328 ****               0 ****  **** 
     74 WAT             331 ****               0 ****  **** 
     75 WAT             334 ****               0 ****  **** 
     76 WAT             337 ****               0 ****  **** 
     77 WAT             340 ****               0 ****  **** 
     78 WAT             343 ****               0 ****  **** 
     79 WAT             346 ****               0 ****  **** 
     80 WAT             349 ****               0 ****  **** 
     81 WAT             352 ****               0 ****  **** 
     82 WAT             355 ****               0 ****  **** 
     83 WAT             358 ****               0 ****  **** 
     84 WAT             361 ****               0 ****  **** 
     85 WAT             364 ****               0 ****  **** 
     86 WAT             367 ****               0 ****  **** 
     87 WAT             370 ****               0 ****  **** 
     88 WAT             373 ****               0 ****  **** 
     89 WAT             376 ****               0 ****  **** 
     90 WAT             379 ****               0 ****  **** 
     91 WAT             382 ****               0 ****  **** 
     92 WAT             385 ****               0 ****  **** 
     93 WAT             388 ****               0 ****  **** 
     94 WAT             391 ****               0 ****  **** 
     95 WAT             394 ****               0 ****  **** 
     96 WAT             397 ****               0 ****  **** 
     97 WAT             400 ****               0 ****  **** 
     98 WAT             403 ****               0 ****  **** 
     99 WAT             406 ****               0 ****  **** 
    100 WAT             409 ****               0 ****  **** 
    101 WAT             412 ****               0 ****  **** 
    102 WAT             415 ****               0 ****  **** 
    103 WAT             418 ****               0 ****  **** 
    104 WAT             421 ****               0 ****  **** 
    105 WAT             424 ****               0 ****  **** 
    106 WAT             427 ****               0 ****  **** 
    107 WAT             430 ****               0 ****  **** 
    108 WAT             433 ****               0 ****  **** 
    109 WAT             436 ****               0 ****  **** 
    110 WAT             439 ****               0 ****  **** 
    111 WAT             442 ****               0 ****  **** 
    112 WAT             445 ****               0 ****  **** 
    113 WAT             448 ****               0 ****  **** 
    114 WAT             451 ****               0 ****  **** 
    115 WAT             454 ****               0 ****  **** 
    116 WAT             457 ****               0 ****  **** 
    117 WAT             460 ****               0 ****  **** 
    118 WAT             463 ****               0 ****  **** 
    119 WAT             466 ****               0 ****  **** 
    120 WAT             469 ****               0 ****  **** 
    121 WAT             472 ****               0 ****  **** 
    122 WAT             475 ****               0 ****  **** 
    123 WAT             478 ****               0 ****  **** 
    124 WAT             481 ****               0 ****  **** 
    125 WAT             484 ****               0 ****  **** 
    126 WAT             487 ****               0 ****  **** 
    127 WAT             490 ****               0 ****  **** 
    128 WAT             493 ****               0 ****  **** 
    129 WAT             496 ****               0 ****  **** 
    130 WAT             499 ****               0 ****  **** 
    131 WAT             502 ****               0 ****  **** 
    132 WAT             505 ****               0 ****  **** 
    133 WAT             508 ****               0 ****  **** 
    134 WAT             511 ****               0 ****  **** 
    135 WAT             514 ****               0 ****  **** 
    136 WAT             517 ****               0 ****  **** 
    137 WAT             520 ****               0 ****  **** 
    138 WAT             523 ****               0 ****  **** 
    139 WAT             526 ****               0 ****  **** 
    140 WAT             529 ****               0 ****  **** 
    141 WAT             532 ****               0 ****  **** 
    142 WAT             535 ****               0 ****  **** 
    143 WAT             538 ****               0 ****  **** 
    144 WAT             541 ****               0 ****  **** 
    145 WAT             544 ****               0 ****  **** 
    146 WAT             547 ****               0 ****  **** 
    147 WAT             550 ****               0 ****  **** 
    148 WAT             553 ****               0 ****  **** 
    149 WAT             556 ****               0 ****  **** 
    150 WAT             559 ****               0 ****  **** 
    151 WAT             562 ****               0 ****  **** 
    152 WAT             565 ****               0 ****  **** 
    153 WAT             568 ****               0 ****  **** 
    154 WAT             571 ****               0 ****  **** 
    155 WAT             574 ****               0 ****  **** 
    156 WAT             577 ****               0 ****  **** 
    157 WAT             580 ****               0 ****  **** 
    158 WAT             583 ****               0 ****  **** 
    159 WAT             586 ****               0 ****  **** 
    160 WAT             589 ****               0 ****  **** 
    161 WAT             592 ****               0 ****  **** 
    162 WAT             595 ****               0 ****  **** 
    163 WAT             598 ****               0 ****  **** 
    164 WAT             601 ****               0 ****  **** 
    165 WAT             604 ****               0 ****  **** 
    166 WAT             607 ****               0 ****  **** 
    167 WAT             610 ****               0 ****  **** 
    168 WAT             613 ****               0 ****  **** 
    169 WAT             616 ****               0 ****  **** 
    170 WAT             619 ****               0 ****  **** 
    171 WAT             622 ****               0 ****  **** 
    172 WAT             625 ****               0 ****  **** 
    173 WAT             628 ****               0 ****  **** 
    174 WAT             631 ****               0 ****  **** 
    175 WAT             634 ****               0 ****  **** 
    176 WAT             637 ****               0 ****  **** 
    177 WAT             640 ****               0 ****  **** 
    178 WAT             643 ****               0 ****  **** 
    179 WAT             646 ****               0 ****  **** 
    180 WAT             649 ****               0 ****  **** 
    181 WAT             652 ****               0 ****  **** 
    182 WAT             655 ****               0 ****  **** 
    183 WAT             658 ****               0 ****  **** 
    184 WAT             661 ****               0 ****  **** 
    185 WAT             664 ****               0 ****  **** 
    186 WAT             667 ****               0 ****  **** 
    187 WAT             670 ****               0 ****  **** 
    188 WAT             673 ****               0 ****  **** 
    189 WAT             676 ****               0 ****  **** 
    190 WAT             679 ****               0 ****  **** 
    191 WAT             682 ****               0 ****  **** 
    192 WAT             685 ****               0 ****  **** 
    193 WAT             688 ****               0 ****  **** 
    194 WAT             691 ****               0 ****  **** 
    195 WAT             694 ****               0 ****  **** 
    196 WAT             697 ****               0 ****  **** 
    197 WAT             700 ****               0 ****  **** 
    198 WAT             703 ****               0 ****  **** 
    199 WAT             706 ****               0 ****  **** 
    200 WAT             709 ****               0 ****  **** 
    201 WAT             712 ****               0 ****  **** 
    202 WAT             715 ****               0 ****  **** 
    203 WAT             718 ****               0 ****  **** 
    204 WAT             721 ****               0 ****  **** 
    205 WAT             724 ****               0 ****  **** 
    206 WAT             727 ****               0 ****  **** 
    207 WAT             730 ****               0 ****  **** 
    208 WAT             733 ****               0 ****  **** 
    209 WAT             736 ****               0 ****  **** 
    210 WAT             739 ****               0 ****  **** 
    211 WAT             742 ****               0 ****  **** 
    212 WAT             745 ****               0 ****  **** 
    213 WAT             748 ****               0 ****  **** 
    214 WAT             751 ****               0 ****  **** 
    215 WAT             754 ****               0 ****  **** 
    216 WAT             757 ****               0 ****  **** 
    217 WAT             760 ****               0 ****  **** 
    218 WAT             763 ****               0 ****  **** 
    219 WAT             766 ****               0 ****  **** 
    220 WAT             769 ****               0 ****  **** 
    221 WAT             772 ****               0 ****  **** 
    222 WAT             775 ****               0 ****  **** 
    223 WAT             778 ****               0 ****  **** 
    224 WAT             781 ****               0 ****  **** 
    225 WAT             784 ****               0 ****  **** 
    226 WAT             787 ****               0 ****  **** 
    227 WAT             790 ****               0 ****  **** 
    228 WAT             793 ****               0 ****  **** 
    229 WAT             796 ****               0 ****  **** 
    230 WAT             799 ****               0 ****  **** 
    231 WAT             802 ****               0 ****  **** 
    232 WAT             805 ****               0 ****  **** 
    233 WAT             808 ****               0 ****  **** 
    234 WAT             811 ****               0 ****  **** 
    235 WAT             814 ****               0 ****  **** 
    236 WAT             817 ****               0 ****  **** 
    237 WAT             820 ****               0 ****  **** 
    238 WAT             823 ****               0 ****  **** 
    239 WAT             826 ****               0 ****  **** 
    240 WAT             829 ****               0 ****  **** 
    241 WAT             832 ****               0 ****  **** 
    242 WAT             835 ****               0 ****  **** 
    243 WAT             838 ****               0 ****  **** 
    244 WAT             841 ****               0 ****  **** 
    245 WAT             844 ****               0 ****  **** 
    246 WAT             847 ****               0 ****  **** 
    247 WAT             850 ****               0 ****  **** 
    248 WAT             853 ****               0 ****  **** 
    249 WAT             856 ****               0 ****  **** 
    250 WAT             859 ****               0 ****  **** 
    251 WAT             862 ****               0 ****  **** 
    252 WAT             865 ****               0 ****  **** 
    253 WAT             868 ****               0 ****  **** 
    254 WAT             871 ****               0 ****  **** 
    255 WAT             874 ****               0 ****  **** 
    256 WAT             877 ****               0 ****  **** 
    257 WAT             880 ****               0 ****  **** 
    258 WAT             883 ****               0 ****  **** 
    259 WAT             886 ****               0 ****  **** 
    260 WAT             889 ****               0 ****  **** 
    261 WAT             892 ****               0 ****  **** 
    262 WAT             895 ****               0 ****  **** 
    263 WAT             898 ****               0 ****  **** 
    264 WAT             901 ****               0 ****  **** 
    265 WAT             904 ****               0 ****  **** 
    266 WAT             907 ****               0 ****  **** 
    267 WAT             910 ****               0 ****  **** 
    268 WAT             913 ****               0 ****  **** 
    269 WAT             916 ****               0 ****  **** 
    270 WAT             919 ****               0 ****  **** 
    271 WAT             922 ****               0 ****  **** 
    272 WAT             925 ****               0 ****  **** 
    273 WAT             928 ****               0 ****  **** 
    274 WAT             931 ****               0 ****  **** 
    275 WAT             934 ****               0 ****  **** 
    276 WAT             937 ****               0 ****  **** 
    277 WAT             940 ****               0 ****  **** 
    278 WAT             943 ****               0 ****  **** 
    279 WAT             946 ****               0 ****  **** 
    280 WAT             949 ****               0 ****  **** 
    281 WAT             952 ****               0 ****  **** 
    282 WAT             955 ****               0 ****  **** 
    283 WAT             958 ****               0 ****  **** 
    284 WAT             961 ****               0 ****  **** 
    285 WAT             964 ****               0 ****  **** 
    286 WAT             967 ****               0 ****  **** 
    287 WAT             970 ****               0 ****  **** 
    288 WAT             973 ****               0 ****  **** 
    289 WAT             976 ****               0 ****  **** 
    290 WAT             979 ****               0 ****  **** 
    291 WAT             982 ****               0 ****  **** 
    292 WAT             985 ****               0 ****  **** 
    293 WAT             988 ****               0 ****  **** 
    294 WAT             991 ****               0 ****  **** 
    295 WAT             994 ****               0 ****  **** 
    296 WAT             997 ****               0 ****  **** 
    297 WAT            1000 ****               0 ****  **** 
    298 WAT            1003 ****               0 ****  **** 
    299 WAT            1006 ****               0 ****  **** 
    300 WAT            1009 ****               0 ****  **** 
    301 WAT            1012 ****               0 ****  **** 
    302 WAT            1015 ****               0 ****  **** 
    303 WAT            1018 ****               0 ****  **** 
    304 WAT            1021 ****               0 ****  **** 
    305 WAT            1024 ****               0 ****  **** 
    306 WAT            1027 ****               0 ****  **** 
    307 WAT            1030 ****               0 ****  **** 
    308 WAT            1033 ****               0 ****  **** 
    309 WAT            1036 ****               0 ****  **** 
    310 WAT            1039 ****               0 ****  **** 
    311 WAT            1042 ****               0 ****  **** 
    312 WAT            1045 ****               0 ****  **** 
    313 WAT            1048 ****               0 ****  **** 
    314 WAT            1051 ****               0 ****  **** 
    315 WAT            1054 ****               0 ****  **** 
    316 WAT            1057 ****               0 ****  **** 
    317 WAT            1060 ****               0 ****  **** 
    318 WAT            1063 ****               0 ****  **** 
    319 WAT            1066 ****               0 ****  **** 
    320 WAT            1069 ****               0 ****  **** 
    321 WAT            1072 ****               0 ****  **** 
    322 WAT            1075 ****               0 ****  **** 
    323 WAT            1078 ****               0 ****  **** 
    324 WAT            1081 ****               0 ****  **** 
    325 WAT            1084 ****               0 ****  **** 
    326 WAT            1087 ****               0 ****  **** 
    327 WAT            1090 ****               0 ****  **** 
    328 WAT            1093 ****               0 ****  **** 
    329 WAT            1096 ****               0 ****  **** 
    330 WAT            1099 ****               0 ****  **** 
    331 WAT            1102 ****               0 ****  **** 
    332 WAT            1105 ****               0 ****  **** 
    333 WAT            1108 ****               0 ****  **** 
    334 WAT            1111 ****               0 ****  **** 
    335 WAT            1114 ****               0 ****  **** 
    336 WAT            1117 ****               0 ****  **** 
    337 WAT            1120 ****               0 ****  **** 
    338 WAT            1123 ****               0 ****  **** 
    339 WAT            1126 ****               0 ****  **** 
    340 WAT            1129 ****               0 ****  **** 
    341 WAT            1132 ****               0 ****  **** 
    342 WAT            1135 ****               0 ****  **** 
    343 WAT            1138 ****               0 ****  **** 
    344 WAT            1141 ****               0 ****  **** 
    345 WAT            1144 ****               0 ****  **** 
    346 WAT            1147 ****               0 ****  **** 
    347 WAT            1150 ****               0 ****  **** 
    348 WAT            1153 ****               0 ****  **** 
    349 WAT            1156 ****               0 ****  **** 
    350 WAT            1159 ****               0 ****  **** 
    351 WAT            1162 ****               0 ****  **** 
    352 WAT            1165 ****               0 ****  **** 
    353 WAT            1168 ****               0 ****  **** 
    354 WAT            1171 ****               0 ****  **** 
    355 WAT            1174 ****               0 ****  **** 
    356 WAT            1177 ****               0 ****  **** 
    357 WAT            1180 ****               0 ****  **** 
    358 WAT            1183 ****               0 ****  **** 
    359 WAT            1186 ****               0 ****  **** 
    360 WAT            1189 ****               0 ****  **** 
    361 WAT            1192 ****               0 ****  **** 
    362 WAT            1195 ****               0 ****  **** 
    363 WAT            1198 ****               0 ****  **** 
    364 WAT            1201 ****               0 ****  **** 
    365 WAT            1204 ****               0 ****  **** 
    366 WAT            1207 ****               0 ****  **** 
    367 WAT            1210 ****               0 ****  **** 
    368 WAT            1213 ****               0 ****  **** 
    369 WAT            1216 ****               0 ****  **** 
    370 WAT            1219 ****               0 ****  **** 
    371 WAT            1222 ****               0 ****  **** 
    372 WAT            1225 ****               0 ****  **** 
    373 WAT            1228 ****               0 ****  **** 
    374 WAT            1231 ****               0 ****  **** 
    375 WAT            1234 ****               0 ****  **** 
    376 WAT            1237 ****               0 ****  **** 
    377 WAT            1240 ****               0 ****  **** 
    378 WAT            1243 ****               0 ****  **** 
    379 WAT            1246 ****               0 ****  **** 
    380 WAT            1249 ****               0 ****  **** 
    381 WAT            1252 ****               0 ****  **** 
    382 WAT            1255 ****               0 ****  **** 
    383 WAT            1258 ****               0 ****  **** 
    384 WAT            1261 ****               0 ****  **** 
    385 WAT            1264 ****               0 ****  **** 
    386 WAT            1267 ****               0 ****  **** 
    387 WAT            1270 ****               0 ****  **** 
    388 WAT            1273 ****               0 ****  **** 
    389 WAT            1276 ****               0 ****  **** 
    390 WAT            1279 ****               0 ****  **** 
    391 WAT            1282 ****               0 ****  **** 
    392 WAT            1285 ****               0 ****  **** 
    393 WAT            1288 ****               0 ****  **** 
    394 WAT            1291 ****               0 ****  **** 
    395 WAT            1294 ****               0 ****  **** 
    396 WAT            1297 ****               0 ****  **** 
    397 WAT            1300 ****               0 ****  **** 
    398 WAT            1303 ****               0 ****  **** 
    399 WAT            1306 ****               0 ****  **** 
    400 WAT            1309 ****               0 ****  **** 
    401 WAT            1312 ****               0 ****  **** 
    402 WAT            1315 ****               0 ****  **** 
    403 WAT            1318 ****               0 ****  **** 
    404 WAT            1321 ****               0 ****  **** 
    405 WAT            1324 ****               0 ****  **** 
    406 WAT            1327 ****               0 ****  **** 
    407 WAT            1330 ****               0 ****  **** 
    408 WAT            1333 ****               0 ****  **** 
    409 WAT            1336 ****               0 ****  **** 
    410 WAT            1339 ****               0 ****  **** 
    411 WAT            1342 ****               0 ****  **** 
    412 WAT            1345 ****               0 ****  **** 
    413 WAT            1348 ****               0 ****  **** 
    414 WAT            1351 ****               0 ****  **** 
    415 WAT            1354 ****               0 ****  **** 
    416 WAT            1357 ****               0 ****  **** 
    417 WAT            1360 ****               0 ****  **** 
    418 WAT            1363 ****               0 ****  **** 
    419 WAT            1366 ****               0 ****  **** 
    420 WAT            1369 ****               0 ****  **** 
    421 WAT            1372 ****               0 ****  **** 
    422 WAT            1375 ****               0 ****  **** 
    423 WAT            1378 ****               0 ****  **** 
    424 WAT            1381 ****               0 ****  **** 
    425 WAT            1384 ****               0 ****  **** 
    426 WAT            1387 ****               0 ****  **** 
    427 WAT            1390 ****               0 ****  **** 
    428 WAT            1393 ****               0 ****  **** 
    429 WAT            1396 ****               0 ****  **** 
    430 WAT            1399 ****               0 ****  **** 
    431 WAT            1402 ****               0 ****  **** 
    432 WAT            1405 ****               0 ****  **** 
    433 WAT            1408 ****               0 ****  **** 
    434 WAT            1411 ****               0 ****  **** 
    435 WAT            1414 ****               0 ****  **** 
    436 WAT            1417 ****               0 ****  **** 
    437 WAT            1420 ****               0 ****  **** 
    438 WAT            1423 ****               0 ****  **** 
    439 WAT            1426 ****               0 ****  **** 
    440 WAT            1429 ****               0 ****  **** 
    441 WAT            1432 ****               0 ****  **** 
    442 WAT            1435 ****               0 ****  **** 
    443 WAT            1438 ****               0 ****  **** 
    444 WAT            1441 ****               0 ****  **** 
    445 WAT            1444 ****               0 ****  **** 
    446 WAT            1447 ****               0 ****  **** 
    447 WAT            1450 ****               0 ****  **** 
    448 WAT            1453 ****               0 ****  **** 
    449 WAT            1456 ****               0 ****  **** 
    450 WAT            1459 ****               0 ****  **** 
    451 WAT            1462 ****               0 ****  **** 
    452 WAT            1465 ****               0 ****  **** 
    453 WAT            1468 ****               0 ****  **** 
    454 WAT            1471 ****               0 ****  **** 
    455 WAT            1474 ****               0 ****  **** 
    456 WAT            1477 ****               0 ****  **** 
    457 WAT            1480 ****               0 ****  **** 
    458 WAT            1483 ****               0 ****  **** 
    459 WAT            1486 ****               0 ****  **** 
    460 WAT            1489 ****               0 ****  **** 
    461 WAT            1492 ****               0 ****  **** 
    462 WAT            1495 ****               0 ****  **** 
    463 WAT            1498 ****               0 ****  **** 
    464 WAT            1501 ****               0 ****  **** 
    465 WAT            1504 ****               0 ****  **** 
    466 WAT            1507 ****               0 ****  **** 
    467 WAT            1510 ****               0 ****  **** 
    468 WAT            1513 ****               0 ****  **** 
    469 WAT            1516 ****               0 ****  **** 
    470 WAT            1519 ****               0 ****  **** 
    471 WAT            1522 ****               0 ****  **** 
    472 WAT            1525 ****               0 ****  **** 
    473 WAT            1528 ****               0 ****  **** 
    474 WAT            1531 ****               0 ****  **** 
    475 WAT            1534 ****               0 ****  **** 
    476 WAT            1537 ****               0 ****  **** 
    477 WAT            1540 ****               0 ****  **** 
    478 WAT            1543 ****               0 ****  **** 
    479 WAT            1546 ****               0 ****  **** 
    480 WAT            1549 ****               0 ****  **** 
    481 WAT            1552 ****               0 ****  **** 
    482 WAT            1555 ****               0 ****  **** 
    483 WAT            1558 ****               0 ****  **** 
    484 WAT            1561 ****               0 ****  **** 
    485 WAT            1564 ****               0 ****  **** 
    486 WAT            1567 ****               0 ****  **** 
    487 WAT            1570 ****               0 ****  **** 
    488 WAT            1573 ****               0 ****  **** 
    489 WAT            1576 ****               0 ****  **** 
    490 WAT            1579 ****               0 ****  **** 
    491 WAT            1582 ****               0 ****  **** 
    492 WAT            1585 ****               0 ****  **** 
    493 WAT            1588 ****               0 ****  **** 
    494 WAT            1591 ****               0 ****  **** 
    495 WAT            1594 ****               0 ****  **** 
    496 WAT            1597 ****               0 ****  **** 
    497 WAT            1600 ****               0 ****  **** 
    498 WAT            1603 ****               0 ****  **** 
    499 WAT            1606 ****               0 ****  **** 
    500 WAT            1609 ****               0 ****  **** 
    501 WAT            1612 ****               0 ****  **** 
    502 WAT            1615 ****               0 ****  **** 
    503 WAT            1618 ****               0 ****  **** 
    504 WAT            1621 ****               0 ****  **** 
    505 WAT            1624 ****               0 ****  **** 
    506 WAT            1627 ****               0 ****  **** 
    507 WAT            1630 ****               0 ****  **** 
    508 WAT            1633 ****               0 ****  **** 
    509 WAT            1636 ****               0 ****  **** 
    510 WAT            1639 ****               0 ****  **** 
    511 WAT            1642 ****               0 ****  **** 
    512 WAT            1645 ****               0 ****  **** 
    513 WAT            1648 ****               0 ****  **** 
    514 WAT            1651 ****               0 ****  **** 
    515 WAT            1654 ****               0 ****  **** 
    516 WAT            1657 ****               0 ****  **** 
    517 WAT            1660 ****               0 ****  **** 
    518 WAT            1663 ****               0 ****  **** 
    519 WAT            1666 ****               0 ****  **** 
    520 WAT            1669 ****               0 ****  **** 
    521 WAT            1672 ****               0 ****  **** 
    522 WAT            1675 ****               0 ****  **** 
    523 WAT            1678 ****               0 ****  **** 
    524 WAT            1681 ****               0 ****  **** 
    525 WAT            1684 ****               0 ****  **** 
    526 WAT            1687 ****               0 ****  **** 
    527 WAT            1690 ****               0 ****  **** 
    528 WAT            1693 ****               0 ****  **** 
    529 WAT            1696 ****               0 ****  **** 
    530 WAT            1699 ****               0 ****  **** 
    531 WAT            1702 ****               0 ****  **** 
    532 WAT            1705 ****               0 ****  **** 
    533 WAT            1708 ****               0 ****  **** 
    534 WAT            1711 ****               0 ****  **** 
    535 WAT            1714 ****               0 ****  **** 
    536 WAT            1717 ****               0 ****  **** 
    537 WAT            1720 ****               0 ****  **** 
    538 WAT            1723 ****               0 ****  **** 
    539 WAT            1726 ****               0 ****  **** 
    540 WAT            1729 ****               0 ****  **** 
    541 WAT            1732 ****               0 ****  **** 
    542 WAT            1735 ****               0 ****  **** 
    543 WAT            1738 ****               0 ****  **** 
    544 WAT            1741 ****               0 ****  **** 
    545 WAT            1744 ****               0 ****  **** 
    546 WAT            1747 ****               0 ****  **** 
    547 WAT            1750 ****               0 ****  **** 
    548 WAT            1753 ****               0 ****  **** 
    549 WAT            1756 ****               0 ****  **** 
    550 WAT            1759 ****               0 ****  **** 
    551 WAT            1762 ****               0 ****  **** 
    552 WAT            1765 ****               0 ****  **** 
    553 WAT            1768 ****               0 ****  **** 
    554 WAT            1771 ****               0 ****  **** 
    555 WAT            1774 ****               0 ****  **** 
    556 WAT            1777 ****               0 ****  **** 
    557 WAT            1780 ****               0 ****  **** 
    558 WAT            1783 ****               0 ****  **** 
    559 WAT            1786 ****               0 ****  **** 
    560 WAT            1789 ****               0 ****  **** 
    561 WAT            1792 ****               0 ****  **** 
    562 WAT            1795 ****               0 ****  **** 
    563 WAT            1798 ****               0 ****  **** 
    564 WAT            1801 ****               0 ****  **** 
    565 WAT            1804 ****               0 ****  **** 
    566 WAT            1807 ****               0 ****  **** 
    567 WAT            1810 ****               0 ****  **** 
    568 WAT            1813 ****               0 ****  **** 
    569 WAT            1816 ****               0 ****  **** 
    570 WAT            1819 ****               0 ****  **** 
    571 WAT            1822 ****               0 ****  **** 
    572 WAT            1825 ****               0 ****  **** 
    573 WAT            1828 ****               0 ****  **** 
    574 WAT            1831 ****               0 ****  **** 
    575 WAT            1834 ****               0 ****  **** 
    576 WAT            1837 ****               0 ****  **** 
    577 WAT            1840 ****               0 ****  **** 
    578 WAT            1843 ****               0 ****  **** 
    579 WAT            1846 ****               0 ****  **** 
    580 WAT            1849 ****               0 ****  **** 
    581 WAT            1852 ****               0 ****  **** 
    582 WAT            1855 ****               0 ****  **** 
    583 WAT            1858 ****               0 ****  **** 
    584 WAT            1861 ****               0 ****  **** 
    585 WAT            1864 ****               0 ****  **** 
    586 WAT            1867 ****               0 ****  **** 
    587 WAT            1870 ****               0 ****  **** 
    588 WAT            1873 ****               0 ****  **** 
    589 WAT            1876 ****               0 ****  **** 
    590 WAT            1879 ****               0 ****  **** 
    591 WAT            1882 ****               0 ****  **** 
    592 WAT            1885 ****               0 ****  **** 
    593 WAT            1888 ****               0 ****  **** 
    594 WAT            1891 ****               0 ****  **** 
    595 WAT            1894 ****               0 ****  **** 
    596 WAT            1897 ****               0 ****  **** 
    597 WAT            1900 ****               0 ****  **** 
    598 WAT            1903 ****               0 ****  **** 
    599 WAT            1906 ****               0 ****  **** 
    600 WAT            1909 ****               0 ****  **** 
    601 WAT            1912 ****               0 ****  **** 
    602 WAT            1915 ****               0 ****  **** 
    603 WAT            1918 ****               0 ****  **** 
    604 WAT            1921 ****               0 ****  **** 
    605 WAT            1924 ****               0 ****  **** 
    606 WAT            1927 ****               0 ****  **** 
    607 WAT            1930 ****               0 ****  **** 
    608 WAT            1933 ****               0 ****  **** 
    609 WAT            1936 ****               0 ****  **** 
    610 WAT            1939 ****               0 ****  **** 
    611 WAT            1942 ****               0 ****  **** 
    612 WAT            1945 ****               0 ****  **** 
    613 WAT            1948 ****               0 ****  **** 
    614 WAT            1951 ****               0 ****  **** 
    615 WAT            1954 ****               0 ****  **** 
    616 WAT            1957 ****               0 ****  **** 
    617 WAT            1960 ****               0 ****  **** 
    618 WAT            1963 ****               0 ****  **** 
    619 WAT            1966 ****               0 ****  **** 
    620 WAT            1969 ****               0 ****  **** 
    621 WAT            1972 ****               0 ****  **** 
    622 WAT            1975 ****               0 ****  **** 
    623 WAT            1978 ****               0 ****  **** 
    624 WAT            1981 ****               0 ****  **** 
    625 WAT            1984 ****               0 ****  **** 
    626 WAT            1987 ****               0 ****  **** 
    627 WAT            1990 ****               0 ****  **** 
    628 WAT            1993 ****               0 ****  **** 
    629 WAT            1996 ****               0 ****  **** 
    630 WAT            1999 ****               0 ****  **** 
    631 WAT            2002 ****               0 ****  **** 
    632 WAT            2005 ****               0 ****  **** 
    633 WAT            2008 ****               0 ****  **** 
    634 WAT            2011 ****               0 ****  **** 
    635 WAT            2014 ****               0 ****  **** 
    636 WAT            2017 ****               0 ****  **** 
    637 WAT            2020 ****               0 ****  **** 
    638 WAT            2023 ****               0 ****  **** 
    639 WAT            2026 ****               0 ****  **** 
    640 WAT            2029 ****               0 ****  **** 
    641 WAT            2032 ****               0 ****  **** 
    642 WAT            2035 ****               0 ****  **** 
    643 WAT            2038 ****               0 ****  **** 
    644 WAT            2041 ****               0 ****  **** 
    645 WAT            2044 ****               0 ****  **** 
    646 WAT            2047 ****               0 ****  **** 
    647 WAT            2050 ****               0 ****  **** 
    648 WAT            2053 ****               0 ****  **** 
    649 WAT            2056 ****               0 ****  **** 
    650 WAT            2059 ****               0 ****  **** 
    651 WAT            2062 ****               0 ****  **** 
    652 WAT            2065 ****               0 ****  **** 
    653 WAT            2068 ****               0 ****  **** 
    654 WAT            2071 ****               0 ****  **** 
    655 WAT            2074 ****               0 ****  **** 
    656 WAT            2077 ****               0 ****  **** 
    657 WAT            2080 ****               0 ****  **** 
    658 WAT            2083 ****               0 ****  **** 
    659 WAT            2086 ****               0 ****  **** 
    660 WAT            2089 ****               0 ****  **** 
    661 WAT            2092 ****               0 ****  **** 
    662 WAT            2095 ****               0 ****  **** 
    663 WAT            2098 ****               0 ****  **** 
    664 WAT            2101 ****               0 ****  **** 
    665 WAT            2104 ****               0 ****  **** 
    666 WAT            2107 ****               0 ****  **** 
    667 WAT            2110 ****               0 ****  **** 
    668 WAT            2113 ****               0 ****  **** 
    669 WAT            2116 ****               0 ****  **** 
    670 WAT            2119 ****               0 ****  **** 
    671 WAT            2122 ****               0 ****  **** 
    672 WAT            2125 ****               0 ****  **** 
    673 WAT            2128 ****               0 ****  **** 
    674 WAT            2131 ****               0 ****  **** 
    675 WAT            2134 ****               0 ****  **** 
    676 WAT            2137 ****               0 ****  **** 
    677 WAT            2140 ****               0 ****  **** 
    678 WAT            2143 ****               0 ****  **** 
    679 WAT            2146 ****               0 ****  **** 
    680 WAT            2149 ****               0 ****  **** 
    681 WAT            2152 ****               0 ****  **** 
    682 WAT            2155 ****               0 ****  **** 
    683 WAT            2158 ****               0 ****  **** 
    684 WAT            2161 ****               0 ****  **** 
    685 WAT            2164 ****               0 ****  **** 
    686 WAT            2167 ****               0 ****  **** 
    687 WAT            2170 ****               0 ****  **** 
    688 WAT            2173 ****               0 ****  **** 
    689 WAT            2176 ****               0 ****  **** 
    690 WAT            2179 ****               0 ****  **** 
    691 WAT            2182 ****               0 ****  **** 
    692 WAT            2185 ****               0 ****  **** 
    693 WAT            2188 ****               0 ****  **** 
    694 WAT            2191 ****               0 ****  **** 
    695 WAT            2194 ****               0 ****  **** 
    696 WAT            2197 ****               0 ****  **** 
    697 WAT            2200 ****               0 ****  **** 
    698 WAT            2203 ****               0 ****  **** 
    699 WAT            2206 ****               0 ****  **** 
    700 WAT            2209 ****               0 ****  **** 
    701 WAT            2212 ****               0 ****  **** 
    702 WAT            2215 ****               0 ****  **** 
    703 WAT            2218 ****               0 ****  **** 
    704 WAT            2221 ****               0 ****  **** 
    705 WAT            2224 ****               0 ****  **** 
    706 WAT            2227 ****               0 ****  **** 
    707 WAT            2230 ****               0 ****  **** 
    708 WAT            2233 ****               0 ****  **** 
    709 WAT            2236 ****               0 ****  **** 
    710 WAT            2239 ****               0 ****  **** 
    711 WAT            2242 ****               0 ****  **** 
    712 WAT            2245 ****               0 ****  **** 
    713 WAT            2248 ****               0 ****  **** 
    714 WAT            2251 ****               0 ****  **** 
    715 WAT            2254 ****               0 ****  **** 
    716 WAT            2257 ****               0 ****  **** 
    717 WAT            2260 ****               0 ****  **** 
    718 WAT            2263 ****               0 ****  **** 
    719 WAT            2266 ****               0 ****  **** 
    720 WAT            2269 ****               0 ****  **** 
    721 WAT            2272 ****               0 ****  **** 
    722 WAT            2275 ****               0 ****  **** 
    723 WAT            2278 ****               0 ****  **** 
    724 WAT            2281 ****               0 ****  **** 
    725 WAT            2284 ****               0 ****  **** 
    726 WAT            2287 ****               0 ****  **** 
    727 WAT            2290 ****               0 ****  **** 
    728 WAT            2293 ****               0 ****  **** 
    729 WAT            2296 ****               0 ****  **** 
    730 WAT            2299 ****               0 ****  **** 
    731 WAT            2302 ****               0 ****  **** 
    732 WAT            2305 ****               0 ****  **** 
    733 WAT            2308 ****               0 ****  **** 
    734 WAT            2311 ****               0 ****  **** 
    735 WAT            2314 ****               0 ****  **** 
    736 WAT            2317 ****               0 ****  **** 
    737 WAT            2320 ****               0 ****  **** 
    738 WAT            2323 ****               0 ****  **** 
    739 WAT            2326 ****               0 ****  **** 
    740 WAT            2329 ****               0 ****  **** 
    741 WAT            2332 ****               0 ****  **** 
    742 WAT            2335 ****               0 ****  **** 
    743 WAT            2338 ****               0 ****  **** 
    744 WAT            2341 ****               0 ****  **** 
    745 WAT            2344 ****               0 ****  **** 
    746 WAT            2347 ****               0 ****  **** 
    747 WAT            2350 ****               0 ****  **** 
    748 WAT            2353 ****               0 ****  **** 
    749 WAT            2356 ****               0 ****  **** 
    750 WAT            2359 ****               0 ****  **** 
    751 WAT            2362 ****               0 ****  **** 
    752 WAT            2365 ****               0 ****  **** 
    753 WAT            2368 ****               0 ****  **** 
    754 WAT            2371 ****               0 ****  **** 
    755 WAT            2374 ****               0 ****  **** 
    756 WAT            2377 ****               0 ****  **** 
    757 WAT            2380 ****               0 ****  **** 
    758 WAT            2383 ****               0 ****  **** 
    759 WAT            2386 ****               0 ****  **** 
    760 WAT            2389 ****               0 ****  **** 
    761 WAT            2392 ****               0 ****  **** 
    762 WAT            2395 ****               0 ****  **** 
    763 WAT            2398 ****               0 ****  **** 
    764 WAT            2401 ****               0 ****  **** 
    765 WAT            2404 ****               0 ****  **** 
    766 WAT            2407 ****               0 ****  **** 
    767 WAT            2410 ****               0 ****  **** 
    768 WAT            2413 ****               0 ****  **** 
    769 WAT            2416 ****               0 ****  **** 
    770 WAT            2419 ****               0 ****  **** 
    771 WAT            2422 ****               0 ****  **** 
    772 WAT            2425 ****               0 ****  **** 
    773 WAT            2428 ****               0 ****  **** 
    774 WAT            2431 ****               0 ****  **** 
    775 WAT            2434 ****               0 ****  **** 
    776 WAT            2437 ****               0 ****  **** 
    777 WAT            2440 ****               0 ****  **** 
    778 WAT            2443 ****               0 ****  **** 
    779 WAT            2446 ****               0 ****  **** 
    780 WAT            2449 ****               0 ****  **** 
    781 WAT            2452 ****               0 ****  **** 
    782 WAT            2455 ****               0 ****  **** 
    783 WAT            2458 ****               0 ****  **** 
    784 WAT            2461 ****               0 ****  **** 
    785 WAT            2464 ****               0 ****  **** 
    786 WAT            2467 ****               0 ****  **** 
    787 WAT            2470 ****               0 ****  **** 
    788 WAT            2473 ****               0 ****  **** 
    789 WAT            2476 ****               0 ****  **** 
    790 WAT            2479 ****               0 ****  **** 
    791 WAT            2482 ****               0 ****  **** 
    792 WAT            2485 ****               0 ****  **** 
    793 WAT            2488 ****               0 ****  **** 
    794 WAT            2491 ****               0 ****  **** 
    795 WAT            2494 ****               0 ****  **** 
    796 WAT            2497 ****               0 ****  **** 
    797 WAT            2500 ****               0 ****  **** 
    798 WAT            2503 ****               0 ****  **** 
    799 WAT            2506 ****               0 ****  **** 
    800 WAT            2509 ****               0 ****  **** 
    801 WAT            2512 ****               0 ****  **** 
    802 WAT            2515 ****               0 ****  **** 
    803 WAT            2518 ****               0 ****  **** 
    804 WAT            2521 ****               0 ****  **** 
    805 WAT            2524 ****               0 ****  **** 
    806 WAT            2527 ****               0 ****  **** 
    807 WAT            2530 ****               0 ****  **** 
    808 WAT            2533 ****               0 ****  **** 
    809 WAT            2536 ****               0 ****  **** 
    810 WAT            2539 ****               0 ****  **** 
    811 WAT            2542 ****               0 ****  **** 
    812 WAT            2545 ****               0 ****  **** 
    813 WAT            2548 ****               0 ****  **** 
    814 WAT            2551 ****               0 ****  **** 
    815 WAT            2554 ****               0 ****  **** 
    816 WAT            2557 ****               0 ****  **** 
    817 WAT            2560 ****               0 ****  **** 
    818 WAT            2563 ****               0 ****  **** 
    819 WAT            2566 ****               0 ****  **** 
    820 WAT            2569 ****               0 ****  **** 
    821 WAT            2572 ****               0 ****  **** 
    822 WAT            2575 ****               0 ****  **** 
    823 WAT            2578 ****               0 ****  **** 
    824 WAT            2581 ****               0 ****  **** 
    825 WAT            2584 ****               0 ****  **** 
    826 WAT            2587 ****               0 ****  **** 
    827 WAT            2590 ****               0 ****  **** 
    828 WAT            2593 ****               0 ****  **** 
    829 WAT            2596 ****               0 ****  **** 
    830 WAT            2599 ****               0 ****  **** 
    831 WAT            2602 ****               0 ****  **** 
    832 WAT            2605 ****               0 ****  **** 
    833 WAT            2608 ****               0 ****  **** 
    834 WAT            2611 ****               0 ****  **** 
    835 WAT            2614 ****               0 ****  **** 
    836 WAT            2617 ****               0 ****  **** 
    837 WAT            2620 ****               0 ****  **** 
    838 WAT            2623 ****               0 ****  **** 
    839 WAT            2626 ****               0 ****  **** 
    840 WAT            2629 ****               0 ****  **** 
    841 WAT            2632 ****               0 ****  **** 
    842 WAT            2635 ****               0 ****  **** 
    843 WAT            2638 ****               0 ****  **** 
    844 WAT            2641 ****               0 ****  **** 
    845 WAT            2644 ****               0 ****  **** 
    846 WAT            2647 ****               0 ****  **** 
    847 WAT            2650 ****               0 ****  **** 
    848 WAT            2653 ****               0 ****  **** 
    849 WAT            2656 ****               0 ****  **** 
    850 WAT            2659 ****               0 ****  **** 
    851 WAT            2662 ****               0 ****  **** 
    852 WAT            2665 ****               0 ****  **** 
    853 WAT            2668 ****               0 ****  **** 
    854 WAT            2671 ****               0 ****  **** 
    855 WAT            2674 ****               0 ****  **** 
    856 WAT            2677 ****               0 ****  **** 
    857 WAT            2680 ****               0 ****  **** 
    858 WAT            2683 ****               0 ****  **** 
    859 WAT            2686 ****               0 ****  **** 
    860 WAT            2689 ****               0 ****  **** 
    861 WAT            2692 ****               0 ****  **** 
    862 WAT            2695 ****               0 ****  **** 
    863 WAT            2698 ****               0 ****  **** 
    864 WAT            2701 ****               0 ****  **** 
    865 WAT            2704 ****               0 ****  **** 
    866 WAT            2707 ****               0 ****  **** 
    867 WAT            2710 ****               0 ****  **** 
    868 WAT            2713 ****               0 ****  **** 
    869 WAT            2716 ****               0 ****  **** 
    870 WAT            2719 ****               0 ****  **** 
    871 WAT            2722 ****               0 ****  **** 
    872 WAT            2725 ****               0 ****  **** 
    873 WAT            2728 ****               0 ****  **** 
    874 WAT            2731 ****               0 ****  **** 
    875 WAT            2734 ****               0 ****  **** 
    876 WAT            2737 ****               0 ****  **** 
    877 WAT            2740 ****               0 ****  **** 
    878 WAT            2743 ****               0 ****  **** 
    879 WAT            2746 ****               0 ****  **** 
    880 WAT            2749 ****               0 ****  **** 
    881 WAT            2752 ****               0 ****  **** 
    882 WAT            2755 ****               0 ****  **** 
    883 WAT            2758 ****               0 ****  **** 
    884 WAT            2761 ****               0 ****  **** 
    885 WAT            2764 ****               0 ****  **** 
    886 WAT            2767 ****               0 ****  **** 
    887 WAT            2770 ****               0 ****  **** 
    888 WAT            2773 ****               0 ****  **** 
    889 WAT            2776 ****               0 ****  **** 
    890 WAT            2779 ****               0 ****  **** 
    891 WAT            2782 ****               0 ****  **** 
    892 WAT            2785 ****               0 ****  **** 
    893 WAT            2788 ****               0 ****  **** 
    894 WAT            2791 ****               0 ****  **** 
    895 WAT            2794 ****               0 ****  **** 
    896 WAT            2797 ****               0 ****  **** 
    897 WAT            2800 ****               0 ****  **** 
    898 WAT            2803 ****               0 ****  **** 
    899 WAT            2806 ****               0 ****  **** 
    900 WAT            2809 ****               0 ****  **** 
    901 WAT            2812 ****               0 ****  **** 
    902 WAT            2815 ****               0 ****  **** 
    903 WAT            2818 ****               0 ****  **** 
    904 WAT            2821 ****               0 ****  **** 
    905 WAT            2824 ****               0 ****  **** 
    906 WAT            2827 ****               0 ****  **** 
    907 WAT            2830 ****               0 ****  **** 
    908 WAT            2833 ****               0 ****  **** 
    909 WAT            2836 ****               0 ****  **** 
    910 WAT            2839 ****               0 ****  **** 
    911 WAT            2842 ****               0 ****  **** 
    912 WAT            2845 ****               0 ****  **** 
    913 WAT            2848 ****               0 ****  **** 
    914 WAT            2851 ****               0 ****  **** 
    915 WAT            2854 ****               0 ****  **** 
    916 WAT            2857 ****               0 ****  **** 
    917 WAT            2860 ****               0 ****  **** 
    918 WAT            2863 ****               0 ****  **** 
    919 WAT            2866 ****               0 ****  **** 
    920 WAT            2869 ****               0 ****  **** 
    921 WAT            2872 ****               0 ****  **** 
    922 WAT            2875 ****               0 ****  **** 
    923 WAT            2878 ****               0 ****  **** 
    924 WAT            2881 ****               0 ****  **** 
    925 WAT            2884 ****               0 ****  **** 
    926 WAT            2887 ****               0 ****  **** 
    927 WAT            2890 ****               0 ****  **** 
    928 WAT            2893 ****               0 ****  **** 
    929 WAT            2896 ****               0 ****  **** 
    930 WAT            2899 ****               0 ****  **** 
    931 WAT            2902 ****               0 ****  **** 
    932 WAT            2905 ****               0 ****  **** 
    933 WAT            2908 ****               0 ****  **** 
    934 WAT            2911 ****               0 ****  **** 
    935 WAT            2914 ****               0 ****  **** 
    936 WAT            2917 ****               0 ****  **** 
    937 WAT            2920 ****               0 ****  **** 
    938 WAT            2923 ****               0 ****  **** 
    939 WAT            2926 ****               0 ****  **** 
    940 WAT            2929 ****               0 ****  **** 
    941 WAT            2932 ****               0 ****  **** 
    942 WAT            2935 ****               0 ****  **** 
    943 WAT            2938 ****               0 ****  **** 
    944 WAT            2941 ****               0 ****  **** 
    945 WAT            2944 ****               0 ****  **** 
    946 WAT            2947 ****               0 ****  **** 
    947 WAT            2950 ****               0 ****  **** 
    948 WAT            2953 ****               0 ****  **** 
    949 WAT            2956 ****               0 ****  **** 
    950 WAT            2959 ****               0 ****  **** 
    951 WAT            2962 ****               0 ****  **** 
    952 WAT            2965 ****               0 ****  **** 
    953 WAT            2968 ****               0 ****  **** 
    954 WAT            2971 ****               0 ****  **** 
    955 WAT            2974 ****               0 ****  **** 
    956 WAT            2977 ****               0 ****  **** 
    957 WAT            2980 ****               0 ****  **** 
    958 WAT            2983 ****               0 ****  **** 
    959 WAT            2986 ****               0 ****  **** 
    960 WAT            2989 ****               0 ****  **** 
    961 WAT            2992 ****               0 ****  **** 
    962 WAT            2995 ****               0 ****  **** 
    963 WAT            2998 ****               0 ****  **** 
    964 WAT            3001 ****               0 ****  **** 
    965 WAT            3004 ****               0 ****  **** 
    966 WAT            3007 ****               0 ****  **** 
    967 WAT            3010 ****               0 ****  **** 
    968 WAT            3013 ****               0 ****  **** 
    969 WAT            3016 ****               0 ****  **** 
    970 WAT            3019 ****               0 ****  **** 
    971 WAT            3022 ****               0 ****  **** 
    972 WAT            3025 ****               0 ****  **** 
    973 WAT            3028 ****               0 ****  **** 
    974 WAT            3031 ****               0 ****  **** 
    975 WAT            3034 ****               0 ****  **** 
    976 WAT            3037 ****               0 ****  **** 
    977 WAT            3040 ****               0 ****  **** 
    978 WAT            3043 ****               0 ****  **** 
    979 WAT            3046 ****               0 ****  **** 
    980 WAT            3049 ****               0 ****  **** 
    981 WAT            3052 ****               0 ****  **** 
    982 WAT            3055 ****               0 ****  **** 
    983 WAT            3058 ****               0 ****  **** 
    984 WAT            3061 ****               0 ****  **** 
    985 WAT            3064 ****               0 ****  **** 
    986 WAT            3067 ****               0 ****  **** 
    987 WAT            3070 ****               0 ****  **** 
    988 WAT            3073 ****               0 ****  **** 
    989 WAT            3076 ****               0 ****  **** 
    990 WAT            3079 ****               0 ****  **** 
    991 WAT            3082 ****               0 ****  **** 
    992 WAT            3085 ****               0 ****  **** 
    993 WAT            3088 ****               0 ****  **** 
    994 WAT            3091 ****               0 ****  **** 
    995 WAT            3094 ****               0 ****  **** 
    996 WAT            3097 ****               0 ****  **** 
    997 WAT            3100 ****               0 ****  **** 
    998 WAT            3103 ****               0 ****  **** 
    999 WAT            3106 ****               0 ****  **** 
   1000 WAT            3109 ****               0 ****  **** 
   1001 WAT            3112 ****               0 ****  **** 
   1002 WAT            3115 ****               0 ****  **** 
   1003 WAT            3118 ****               0 ****  **** 
   1004 WAT            3121 ****               0 ****  **** 
   1005 WAT            3124 ****               0 ****  **** 
   1006 WAT            3127 ****               0 ****  **** 
   1007 WAT            3130 ****               0 ****  **** 
   1008 WAT            3133 ****               0 ****  **** 
   1009 WAT            3136 ****               0 ****  **** 
   1010 WAT            3139 ****               0 ****  **** 
   1011 WAT            3142 ****               0 ****  **** 
   1012 WAT            3145 ****               0 ****  **** 
   1013 WAT            3148 ****               0 ****  **** 
   1014 WAT            3151 ****               0 ****  **** 
   1015 WAT            3154 ****               0 ****  **** 
   1016 WAT            3157 ****               0 ****  **** 
   1017 WAT            3160 ****               0 ****  **** 
   1018 WAT            3163 ****               0 ****  **** 
   1019 WAT            3166 ****               0 ****  **** 
   1020 WAT            3169 ****               0 ****  **** 
   1021 WAT            3172 ****               0 ****  **** 
   1022 WAT            3175 ****               0 ****  **** 
   1023 WAT            3178 ****               0 ****  **** 
   1024 WAT            3181 ****               0 ****  **** 
   1025 WAT            3184 ****               0 ****  **** 
   1026 WAT            3187 ****               0 ****  **** 
   1027 WAT            3190 ****               0 ****  **** 
   1028 WAT            3193 ****               0 ****  **** 
   1029 WAT            3196 ****               0 ****  **** 
   1030 WAT            3199 ****               0 ****  **** 
   1031 WAT            3202 ****               0 ****  **** 
   1032 WAT            3205 ****               0 ****  **** 
   1033 WAT            3208 ****               0 ****  **** 
   1034 WAT            3211 ****               0 ****  **** 
   1035 WAT            3214 ****               0 ****  **** 
   1036 WAT            3217 ****               0 ****  **** 
   1037 WAT            3220 ****               0 ****  **** 
   1038 WAT            3223 ****               0 ****  **** 
   1039 WAT            3226 ****               0 ****  **** 
   1040 WAT            3229 ****               0 ****  **** 
   1041 WAT            3232 ****               0 ****  **** 
   1042 WAT            3235 ****               0 ****  **** 
   1043 WAT            3238 ****               0 ****  **** 
   1044 WAT            3241 ****               0 ****  **** 
   1045 WAT            3244 ****               0 ****  **** 
   1046 WAT            3247 ****               0 ****  **** 
   1047 WAT            3250 ****               0 ****  **** 
   1048 WAT            3253 ****               0 ****  **** 
   1049 WAT            3256 ****               0 ****  **** 
   1050 WAT            3259 ****               0 ****  **** 
   1051 WAT            3262 ****               0 ****  **** 
   1052 WAT            3265 ****               0 ****  **** 
   1053 WAT            3268 ****               0 ****  **** 
   1054 WAT            3271 ****               0 ****  **** 
   1055 WAT            3274 ****               0 ****  **** 
   1056 WAT            3277 ****               0 ****  **** 
   1057 WAT            3280 ****               0 ****  **** 
   1058 WAT            3283 ****               0 ****  **** 
   1059 WAT            3286 ****               0 ****  **** 
   1060 WAT            3289 ****               0 ****  **** 
   1061 WAT            3292 ****               0 ****  **** 
   1062 WAT            3295 ****               0 ****  **** 
   1063 WAT            3298 ****               0 ****  **** 
   1064 WAT            3301 ****               0 ****  **** 
   1065 WAT            3304 ****               0 ****  **** 
   1066 WAT            3307 ****               0 ****  **** 
   1067 WAT            3310 ****               0 ****  **** 
   1068 WAT            3313 ****               0 ****  **** 
   1069 WAT            3316 ****               0 ****  **** 
   1070 WAT            3319 ****               0 ****  **** 
   1071 WAT            3322 ****               0 ****  **** 
   1072 WAT            3325 ****               0 ****  **** 
   1073 WAT            3328 ****               0 ****  **** 
   1074 WAT            3331 ****               0 ****  **** 
   1075 WAT            3334 ****               0 ****  **** 
   1076 WAT            3337 ****               0 ****  **** 
   1077 WAT            3340 ****               0 ****  **** 
   1078 WAT            3343 ****               0 ****  **** 
   1079 WAT            3346 ****               0 ****  **** 
   1080 WAT            3349 ****               0 ****  **** 
   1081 WAT            3352 ****               0 ****  **** 
   1082 WAT            3355 ****               0 ****  **** 
   1083 WAT            3358 ****               0 ****  **** 
   1084 WAT            3361 ****               0 ****  **** 
   1085 WAT            3364 ****               0 ****  **** 
   1086 WAT            3367 ****               0 ****  **** 
   1087 WAT            3370 ****               0 ****  **** 
   1088 WAT            3373 ****               0 ****  **** 
   1089 WAT            3376 ****               0 ****  **** 
   1090 WAT            3379 ****               0 ****  **** 
   1091 WAT            3382 ****               0 ****  **** 
   1092 WAT            3385 ****               0 ****  **** 
   1093 WAT            3388 ****               0 ****  **** 
   1094 WAT            3391 ****               0 ****  **** 
   1095 WAT            3394 ****               0 ****  **** 
   1096 WAT            3397 ****               0 ****  **** 
   1097 WAT            3400 ****               0 ****  **** 
   1098 WAT            3403 ****               0 ****  **** 
   1099 WAT            3406 ****               0 ****  **** 
   1100 WAT            3409 ****               0 ****  **** 
   1101 WAT            3412 ****               0 ****  **** 
   1102 WAT            3415 ****               0 ****  **** 
   1103 WAT            3418 ****               0 ****  **** 
   1104 WAT            3421 ****               0 ****  **** 
   1105 WAT            3424 ****               0 ****  **** 
   1106 WAT            3427 ****               0 ****  **** 
   1107 WAT            3430 ****               0 ****  **** 
   1108 WAT            3433 ****               0 ****  **** 
   1109 WAT            3436 ****               0 ****  **** 
   1110 WAT            3439 ****               0 ****  **** 
   1111 WAT            3442 ****               0 ****  **** 
   1112 WAT            3445 ****               0 ****  **** 
   1113 WAT            3448 ****               0 ****  **** 
   1114 WAT            3451 ****               0 ****  **** 
   1115 WAT            3454 ****               0 ****  **** 
   1116 WAT            3457 ****               0 ****  **** 
   1117 WAT            3460 ****               0 ****  **** 
   1118 WAT            3463 ****               0 ****  **** 
   1119 WAT            3466 ****               0 ****  **** 
   1120 WAT            3469 ****               0 ****  **** 
   1121 WAT            3472 ****               0 ****  **** 
   1122 WAT            3475 ****               0 ****  **** 
   1123 WAT            3478 ****               0 ****  **** 
   1124 WAT            3481 ****               0 ****  **** 
   1125 WAT            3484 ****               0 ****  **** 
   1126 WAT            3487 ****               0 ****  **** 
   1127 WAT            3490 ****               0 ****  **** 
   1128 WAT            3493 ****               0 ****  **** 
   1129 WAT            3496 ****               0 ****  **** 
   1130 WAT            3499 ****               0 ****  **** 
   1131 WAT            3502 ****               0 ****  **** 
   1132 WAT            3505 ****               0 ****  **** 
   1133 WAT            3508 ****               0 ****  **** 
   1134 WAT            3511 ****               0 ****  **** 
   1135 WAT            3514 ****               0 ****  **** 
   1136 WAT            3517 ****               0 ****  **** 
   1137 WAT            3520 ****               0 ****  **** 
   1138 WAT            3523 ****               0 ****  **** 
   1139 WAT            3526 ****               0 ****  **** 
   1140 WAT            3529 ****               0 ****  **** 
   1141 WAT            3532 ****               0 ****  **** 
   1142 WAT            3535 ****               0 ****  **** 
   1143 WAT            3538 ****               0 ****  **** 
   1144 WAT            3541 ****               0 ****  **** 
   1145 WAT            3544 ****               0 ****  **** 
   1146 WAT            3547 ****               0 ****  **** 
   1147 WAT            3550 ****               0 ****  **** 
   1148 WAT            3553 ****               0 ****  **** 
   1149 WAT            3556 ****               0 ****  **** 
   1150 WAT            3559 ****               0 ****  **** 
   1151 WAT            3562 ****               0 ****  **** 
   1152 WAT            3565 ****               0 ****  **** 
   1153 WAT            3568 ****               0 ****  **** 
   1154 WAT            3571 ****               0 ****  **** 
   1155 WAT            3574 ****               0 ****  **** 
   1156 WAT            3577 ****               0 ****  **** 
   1157 WAT            3580 ****               0 ****  **** 
   1158 WAT            3583 ****               0 ****  **** 
   1159 WAT            3586 ****               0 ****  **** 
   1160 WAT            3589 ****               0 ****  **** 
   1161 WAT            3592 ****               0 ****  **** 
   1162 WAT            3595 ****               0 ****  **** 
   1163 WAT            3598 ****               0 ****  **** 
   1164 WAT            3601 ****               0 ****  **** 
   1165 WAT            3604 ****               0 ****  **** 
   1166 WAT            3607 ****               0 ****  **** 
   1167 WAT            3610 ****               0 ****  **** 
   1168 WAT            3613 ****               0 ****  **** 
   1169 WAT            3616 ****               0 ****  **** 
   1170 WAT            3619 ****               0 ****  **** 
   1171 WAT            3622 ****               0 ****  **** 
   1172 WAT            3625 ****               0 ****  **** 
   1173 WAT            3628 ****               0 ****  **** 
   1174 WAT            3631 ****               0 ****  **** 
   1175 WAT            3634 ****               0 ****  **** 
   1176 WAT            3637 ****               0 ****  **** 
   1177 WAT            3640 ****               0 ****  **** 
   1178 WAT            3643 ****               0 ****  **** 
   1179 WAT            3646 ****               0 ****  **** 
   1180 WAT            3649 ****               0 ****  **** 
   1181 WAT            3652 ****               0 ****  **** 
   1182 WAT            3655 ****               0 ****  **** 
   1183 WAT            3658 ****               0 ****  **** 
   1184 WAT            3661 ****               0 ****  **** 
   1185 WAT            3664 ****               0 ****  **** 
   1186 WAT            3667 ****               0 ****  **** 
   1187 WAT            3670 ****               0 ****  **** 
   1188 WAT            3673 ****               0 ****  **** 
   1189 WAT            3676 ****               0 ****  **** 
   1190 WAT            3679 ****               0 ****  **** 
   1191 WAT            3682 ****               0 ****  **** 
   1192 WAT            3685 ****               0 ****  **** 
   1193 WAT            3688 ****               0 ****  **** 
   1194 WAT            3691 ****               0 ****  **** 
   1195 WAT            3694 ****               0 ****  **** 
   1196 WAT            3697 ****               0 ****  **** 
   1197 WAT            3700 ****               0 ****  **** 
   1198 WAT            3703 ****               0 ****  **** 
   1199 WAT            3706 ****               0 ****  **** 
   1200 WAT            3709 ****               0 ****  **** 
   1201 WAT            3712 ****               0 ****  **** 
   1202 WAT            3715 ****               0 ****  **** 
   1203 WAT            3718 ****               0 ****  **** 
   1204 WAT            3721 ****               0 ****  **** 
   1205 WAT            3724 ****               0 ****  **** 
   1206 WAT            3727 ****               0 ****  **** 
   1207 WAT            3730 ****               0 ****  **** 
   1208 WAT            3733 ****               0 ****  **** 
   1209 WAT            3736 ****               0 ****  **** 
   1210 WAT            3739 ****               0 ****  **** 
   1211 WAT            3742 ****               0 ****  **** 
   1212 WAT            3745 ****               0 ****  **** 
   1213 WAT            3748 ****               0 ****  **** 
   1214 WAT            3751 ****               0 ****  **** 
   1215 WAT            3754 ****               0 ****  **** 
   1216 WAT            3757 ****               0 ****  **** 
   1217 WAT            3760 ****               0 ****  **** 
   1218 WAT            3763 ****               0 ****  **** 
   1219 WAT            3766 ****               0 ****  **** 
   1220 WAT            3769 ****               0 ****  **** 
   1221 WAT            3772 ****               0 ****  **** 
   1222 WAT            3775 ****               0 ****  **** 
   1223 WAT            3778 ****               0 ****  **** 
   1224 WAT            3781 ****               0 ****  **** 
   1225 WAT            3784 ****               0 ****  **** 
   1226 WAT            3787 ****               0 ****  **** 
   1227 WAT            3790 ****               0 ****  **** 
   1228 WAT            3793 ****               0 ****  **** 
   1229 WAT            3796 ****               0 ****  **** 
   1230 WAT            3799 ****               0 ****  **** 
   1231 WAT            3802 ****               0 ****  **** 
   1232 WAT            3805 ****               0 ****  **** 
   1233 WAT            3808 ****               0 ****  **** 
   1234 WAT            3811 ****               0 ****  **** 
   1235 WAT            3814 ****               0 ****  **** 
   1236 WAT            3817 ****               0 ****  **** 
   1237 WAT            3820 ****               0 ****  **** 
   1238 WAT            3823 ****               0 ****  **** 
   1239 WAT            3826 ****               0 ****  **** 
   1240 WAT            3829 ****               0 ****  **** 
   1241 WAT            3832 ****               0 ****  **** 
   1242 WAT            3835 ****               0 ****  **** 
   1243 WAT            3838 ****               0 ****  **** 
   1244 WAT            3841 ****               0 ****  **** 
   1245 WAT            3844 ****               0 ****  **** 
   1246 WAT            3847 ****               0 ****  **** 
   1247 WAT            3850 ****               0 ****  **** 
   1248 WAT            3853 ****               0 ****  **** 
   1249 WAT            3856 ****               0 ****  **** 
   1250 WAT            3859 ****               0 ****  **** 
   1251 WAT            3862 ****               0 ****  **** 
   1252 WAT            3865 ****               0 ****  **** 
   1253 WAT            3868 ****               0 ****  **** 
   1254 WAT            3871 ****               0 ****  **** 
   1255 WAT            3874 ****               0 ****  **** 
   1256 WAT            3877 ****               0 ****  **** 
   1257 WAT            3880 ****               0 ****  **** 
   1258 WAT            3883 ****               0 ****  **** 
   1259 WAT            3886 ****               0 ****  **** 
   1260 WAT            3889 ****               0 ****  **** 
   1261 WAT            3892 ****               0 ****  **** 
   1262 WAT            3895 ****               0 ****  **** 
   1263 WAT            3898 ****               0 ****  **** 
   1264 WAT            3901 ****               0 ****  **** 
   1265 WAT            3904 ****               0 ****  **** 
   1266 WAT            3907 ****               0 ****  **** 
   1267 WAT            3910 ****               0 ****  **** 
   1268 WAT            3913 ****               0 ****  **** 
   1269 WAT            3916 ****               0 ****  **** 
   1270 WAT            3919 ****               0 ****  **** 
   1271 WAT            3922 ****               0 ****  **** 
   1272 WAT            3925 ****               0 ****  **** 
   1273 WAT            3928 ****               0 ****  **** 
   1274 WAT            3931 ****               0 ****  **** 
   1275 WAT            3934 ****               0 ****  **** 
   1276 WAT            3937 ****               0 ****  **** 
   1277 WAT            3940 ****               0 ****  **** 
   1278 WAT            3943 ****               0 ****  **** 
   1279 WAT            3946 ****               0 ****  **** 
   1280 WAT            3949 ****               0 ****  **** 
   1281 WAT            3952 ****               0 ****  **** 
   1282 WAT            3955 ****               0 ****  **** 
   1283 WAT            3958 ****               0 ****  **** 
   1284 WAT            3961 ****               0 ****  **** 
   1285 WAT            3964 ****               0 ****  **** 
   1286 WAT            3967 ****               0 ****  **** 
   1287 WAT            3970 ****               0 ****  **** 
   1288 WAT            3973 ****               0 ****  **** 
   1289 WAT            3976 ****               0 ****  **** 
   1290 WAT            3979 ****               0 ****  **** 
   1291 WAT            3982 ****               0 ****  **** 
   1292 WAT            3985 ****               0 ****  **** 
   1293 WAT            3988 ****               0 ****  **** 
   1294 WAT            3991 ****               0 ****  **** 
   1295 WAT            3994 ****               0 ****  **** 
   1296 WAT            3997 ****               0 ****  **** 
   1297 WAT            4000 ****               0 ****  **** 
   1298 WAT            4003 ****               0 ****  **** 
   1299 WAT            4006 ****               0 ****  **** 
   1300 WAT            4009 ****               0 ****  **** 
   1301 WAT            4012 ****               0 ****  **** 
   1302 WAT            4015 ****               0 ****  **** 
   1303 WAT            4018 ****               0 ****  **** 
   1304 WAT            4021 ****               0 ****  **** 
   1305 WAT            4024 ****               0 ****  **** 
   1306 WAT            4027 ****               0 ****  **** 
   1307 WAT            4030 ****               0 ****  **** 
   1308 WAT            4033 ****               0 ****  **** 
   1309 WAT            4036 ****               0 ****  **** 
   1310 WAT            4039 ****               0 ****  **** 
   1311 WAT            4042 ****               0 ****  **** 
   1312 WAT            4045 ****               0 ****  **** 
   1313 WAT            4048 ****               0 ****  **** 
   1314 WAT            4051 ****               0 ****  **** 
   1315 WAT            4054 ****               0 ****  **** 
   1316 WAT            4057 ****               0 ****  **** 
   1317 WAT            4060 ****               0 ****  **** 
   1318 WAT            4063 ****               0 ****  **** 
   1319 WAT            4066 ****               0 ****  **** 
   1320 WAT            4069 ****               0 ****  **** 
   1321 WAT            4072 ****               0 ****  **** 
   1322 WAT            4075 ****               0 ****  **** 
   1323 WAT            4078 ****               0 ****  **** 
   1324 WAT            4081 ****               0 ****  **** 
   1325 WAT            4084 ****               0 ****  **** 
   1326 WAT            4087 ****               0 ****  **** 
   1327 WAT            4090 ****               0 ****  **** 
   1328 WAT            4093 ****               0 ****  **** 
   1329 WAT            4096 ****               0 ****  **** 
   1330 WAT            4099 ****               0 ****  **** 
   1331 WAT            4102 ****               0 ****  **** 
   1332 WAT            4105 ****               0 ****  **** 
   1333 WAT            4108 ****               0 ****  **** 
   1334 WAT            4111 ****               0 ****  **** 
   1335 WAT            4114 ****               0 ****  **** 
   1336 WAT            4117 ****               0 ****  **** 
   1337 WAT            4120 ****               0 ****  **** 
   1338 WAT            4123 ****               0 ****  **** 
   1339 WAT            4126 ****               0 ****  **** 
   1340 WAT            4129 ****               0 ****  **** 
   1341 WAT            4132 ****               0 ****  **** 
   1342 WAT            4135 ****               0 ****  **** 
   1343 WAT            4138 ****               0 ****  **** 
   1344 WAT            4141 ****               0 ****  **** 
   1345 WAT            4144 ****               0 ****  **** 
   1346 WAT            4147 ****               0 ****  **** 
   1347 WAT            4150 ****               0 ****  **** 
   1348 WAT            4153 ****               0 ****  **** 
   1349 WAT            4156 ****               0 ****  **** 
   1350 WAT            4159 ****               0 ****  **** 
   1351 WAT            4162 ****               0 ****  **** 
   1352 WAT            4165 ****               0 ****  **** 
   1353 WAT            4168 ****               0 ****  **** 
   1354 WAT            4171 ****               0 ****  **** 
   1355 WAT            4174 ****               0 ****  **** 
   1356 WAT            4177 ****               0 ****  **** 
   1357 WAT            4180 ****               0 ****  **** 
   1358 WAT            4183 ****               0 ****  **** 
   1359 WAT            4186 ****               0 ****  **** 
   1360 WAT            4189 ****               0 ****  **** 
   1361 WAT            4192 ****               0 ****  **** 
   1362 WAT            4195 ****               0 ****  **** 
   1363 WAT            4198 ****               0 ****  **** 
   1364 WAT            4201 ****               0 ****  **** 
   1365 WAT            4204 ****               0 ****  **** 
   1366 WAT            4207 ****               0 ****  **** 
   1367 WAT            4210 ****               0 ****  **** 
   1368 WAT            4213 ****               0 ****  **** 
   1369 WAT            4216 ****               0 ****  **** 
   1370 WAT            4219 ****               0 ****  **** 
   1371 WAT            4222 ****               0 ****  **** 
   1372 WAT            4225 ****               0 ****  **** 
   1373 WAT            4228 ****               0 ****  **** 
   1374 WAT            4231 ****               0 ****  **** 
   1375 WAT            4234 ****               0 ****  **** 
   1376 WAT            4237 ****               0 ****  **** 
   1377 WAT            4240 ****               0 ****  **** 
   1378 WAT            4243 ****               0 ****  **** 
   1379 WAT            4246 ****               0 ****  **** 
   1380 WAT            4249 ****               0 ****  **** 
   1381 WAT            4252 ****               0 ****  **** 
   1382 WAT            4255 ****               0 ****  **** 
   1383 WAT            4258 ****               0 ****  **** 
   1384 WAT            4261 ****               0 ****  **** 
   1385 WAT            4264 ****               0 ****  **** 
   1386 WAT            4267 ****               0 ****  **** 
   1387 WAT            4270 ****               0 ****  **** 
   1388 WAT            4273 ****               0 ****  **** 
   1389 WAT            4276 ****               0 ****  **** 
   1390 WAT            4279 ****               0 ****  **** 
   1391 WAT            4282 ****               0 ****  **** 
   1392 WAT            4285 ****               0 ****  **** 
   1393 WAT            4288 ****               0 ****  **** 
   1394 WAT            4291 ****               0 ****  **** 
   1395 WAT            4294 ****               0 ****  **** 
   1396 WAT            4297 ****               0 ****  **** 
   1397 WAT            4300 ****               0 ****  **** 
   1398 WAT            4303 ****               0 ****  **** 
   1399 WAT            4306 ****               0 ****  **** 
   1400 WAT            4309 ****               0 ****  **** 
   1401 WAT            4312 ****               0 ****  **** 
   1402 WAT            4315 ****               0 ****  **** 
   1403 WAT            4318 ****               0 ****  **** 
   1404 WAT            4321 ****               0 ****  **** 
   1405 WAT            4324 ****               0 ****  **** 
   1406 WAT            4327 ****               0 ****  **** 
   1407 WAT            4330 ****               0 ****  **** 
   1408 WAT            4333 ****               0 ****  **** 
   1409 WAT            4336 ****               0 ****  **** 
   1410 WAT            4339 ****               0 ****  **** 
   1411 WAT            4342 ****               0 ****  **** 
   1412 WAT            4345 ****               0 ****  **** 
   1413 WAT            4348 ****               0 ****  **** 
   1414 WAT            4351 ****               0 ****  **** 
   1415 WAT            4354 ****               0 ****  **** 
   1416 WAT            4357 ****               0 ****  **** 
   1417 WAT            4360 ****               0 ****  **** 
   1418 WAT            4363 ****               0 ****  **** 
   1419 WAT            4366 ****               0 ****  **** 
   1420 WAT            4369 ****               0 ****  **** 
   1421 WAT            4372 ****               0 ****  **** 
   1422 WAT            4375 ****               0 ****  **** 
   1423 WAT            4378 ****               0 ****  **** 
   1424 WAT            4381 ****               0 ****  **** 
   1425 WAT            4384 ****               0 ****  **** 
   1426 WAT            4387 ****               0 ****  **** 
   1427 WAT            4390 ****               0 ****  **** 
   1428 WAT            4393 ****               0 ****  **** 
   1429 WAT            4396 ****               0 ****  **** 
   1430 WAT            4399 ****               0 ****  **** 
   1431 WAT            4402 ****               0 ****  **** 
   1432 WAT            4405 ****               0 ****  **** 
   1433 WAT            4408 ****               0 ****  **** 
   1434 WAT            4411 ****               0 ****  **** 
   1435 WAT            4414 ****               0 ****  **** 
   1436 WAT            4417 ****               0 ****  **** 
   1437 WAT            4420 ****               0 ****  **** 
   1438 WAT            4423 ****               0 ****  **** 
   1439 WAT            4426 ****               0 ****  **** 
   1440 WAT            4429 ****               0 ****  **** 
   1441 WAT            4432 ****               0 ****  **** 
   1442 WAT            4435 ****               0 ****  **** 
   1443 WAT            4438 ****               0 ****  **** 
   1444 WAT            4441 ****               0 ****  **** 
   1445 WAT            4444 ****               0 ****  **** 
   1446 WAT            4447 ****               0 ****  **** 
   1447 WAT            4450 ****               0 ****  **** 
   1448 WAT            4453 ****               0 ****  **** 
   1449 WAT            4456 ****               0 ****  **** 
   1450 WAT            4459 ****               0 ****  **** 
   1451 WAT            4462 ****               0 ****  **** 
   1452 WAT            4465 ****               0 ****  **** 
   1453 WAT            4468 ****               0 ****  **** 
   1454 WAT            4471 ****               0 ****  **** 
   1455 WAT            4474 ****               0 ****  **** 
   1456 WAT            4477 ****               0 ****  **** 
   1457 WAT            4480 ****               0 ****  **** 
   1458 WAT            4483 ****               0 ****  **** 
   1459 WAT            4486 ****               0 ****  **** 
   1460 WAT            4489 ****               0 ****  **** 
   1461 WAT            4492 ****               0 ****  **** 
   1462 WAT            4495 ****               0 ****  **** 
   1463 WAT            4498 ****               0 ****  **** 
   1464 WAT            4501 ****               0 ****  **** 
   1465 WAT            4504 ****               0 ****  **** 
   1466 WAT            4507 ****               0 ****  **** 
   1467 WAT            4510 ****               0 ****  **** 
   1468 WAT            4513 ****               0 ****  **** 
   1469 WAT            4516 ****               0 ****  **** 
   1470 WAT            4519 ****               0 ****  **** 
   1471 WAT            4522 ****               0 ****  **** 
   1472 WAT            4525 ****               0 ****  **** 
   1473 WAT            4528 ****               0 ****  **** 
   1474 WAT            4531 ****               0 ****  **** 
   1475 WAT            4534 ****               0 ****  **** 
   1476 WAT            4537 ****               0 ****  **** 
   1477 WAT            4540 ****               0 ****  **** 
   1478 WAT            4543 ****               0 ****  **** 
   1479 WAT            4546 ****               0 ****  **** 
   1480 WAT            4549 ****               0 ****  **** 
   1481 WAT            4552 ****               0 ****  **** 
   1482 WAT            4555 ****               0 ****  **** 
   1483 WAT            4558 ****               0 ****  **** 
   1484 WAT            4561 ****               0 ****  **** 
   1485 WAT            4564 ****               0 ****  **** 
   1486 WAT            4567 ****               0 ****  **** 
   1487 WAT            4570 ****               0 ****  **** 
   1488 WAT            4573 ****               0 ****  **** 
   1489 WAT            4576 ****               0 ****  **** 
   1490 WAT            4579 ****               0 ****  **** 
   1491 WAT            4582 ****               0 ****  **** 
   1492 WAT            4585 ****               0 ****  **** 
   1493 WAT            4588 ****               0 ****  **** 
   1494 WAT            4591 ****               0 ****  **** 
   1495 WAT            4594 ****               0 ****  **** 
   1496 WAT            4597 ****               0 ****  **** 
   1497 WAT            4600 ****               0 ****  **** 
   1498 WAT            4603 ****               0 ****  **** 
   1499 WAT            4606 ****               0 ****  **** 
   1500 WAT            4609 ****               0 ****  **** 
   1501 WAT            4612 ****               0 ****  **** 
   1502 WAT            4615 ****               0 ****  **** 
   1503 WAT            4618 ****               0 ****  **** 
   1504 WAT            4621 ****               0 ****  **** 
   1505 WAT            4624 ****               0 ****  **** 
   1506 WAT            4627 ****               0 ****  **** 
   1507 WAT            4630 ****               0 ****  **** 
   1508 WAT            4633 ****               0 ****  **** 
   1509 WAT            4636 ****               0 ****  **** 
   1510 WAT            4639 ****               0 ****  **** 
   1511 WAT            4642 ****               0 ****  **** 
   1512 WAT            4645 ****               0 ****  **** 
   1513 WAT            4648 ****               0 ****  **** 
   1514 WAT            4651 ****               0 ****  **** 
   1515 WAT            4654 ****               0 ****  **** 
   1516 WAT            4657 ****               0 ****  **** 
   1517 WAT            4660 ****               0 ****  **** 
   1518 WAT            4663 ****               0 ****  **** 
   1519 WAT            4666 ****               0 ****  **** 
   1520 WAT            4669 ****               0 ****  **** 
   1521 WAT            4672 ****               0 ****  **** 
   1522 WAT            4675 ****               0 ****  **** 
   1523 WAT            4678 ****               0 ****  **** 
   1524 WAT            4681 ****               0 ****  **** 
   1525 WAT            4684 ****               0 ****  **** 
   1526 WAT            4687 ****               0 ****  **** 
   1527 WAT            4690 ****               0 ****  **** 
   1528 WAT            4693 ****               0 ****  **** 
   1529 WAT            4696 ****               0 ****  **** 
   1530 WAT            4699 ****               0 ****  **** 
   1531 WAT            4702 ****               0 ****  **** 
   1532 WAT            4705 ****               0 ****  **** 
   1533 WAT            4708 ****               0 ****  **** 
   1534 WAT            4711 ****               0 ****  **** 
   1535 WAT            4714 ****               0 ****  **** 
   1536 WAT            4717 ****               0 ****  **** 
   1537 WAT            4720 ****               0 ****  **** 
   1538 WAT            4723 ****               0 ****  **** 
   1539 WAT            4726 ****               0 ****  **** 
   1540 WAT            4729 ****               0 ****  **** 
   1541 WAT            4732 ****               0 ****  **** 
   1542 WAT            4735 ****               0 ****  **** 
   1543 WAT            4738 ****               0 ****  **** 
   1544 WAT            4741 ****               0 ****  **** 
   1545 WAT            4744 ****               0 ****  **** 
   1546 WAT            4747 ****               0 ****  **** 
   1547 WAT            4750 ****               0 ****  **** 
   1548 WAT            4753 ****               0 ****  **** 
   1549 WAT            4756 ****               0 ****  **** 
   1550 WAT            4759 ****               0 ****  **** 
   1551 WAT            4762 ****               0 ****  **** 
   1552 WAT            4765 ****               0 ****  **** 
   1553 WAT            4768 ****               0 ****  **** 
   1554 WAT            4771 ****               0 ****  **** 
   1555 WAT            4774 ****               0 ****  **** 
   1556 WAT            4777 ****               0 ****  **** 
   1557 WAT            4780 ****               0 ****  **** 
   1558 WAT            4783 ****               0 ****  **** 
   1559 WAT            4786 ****               0 ****  **** 
   1560 WAT            4789 ****               0 ****  **** 
   1561 WAT            4792 ****               0 ****  **** 
   1562 WAT            4795 ****               0 ****  **** 
   1563 WAT            4798 ****               0 ****  **** 
   1564 WAT            4801 ****               0 ****  **** 
   1565 WAT            4804 ****               0 ****  **** 
   1566 WAT            4807 ****               0 ****  **** 
   1567 WAT            4810 ****               0 ****  **** 
   1568 WAT            4813 ****               0 ****  **** 
   1569 WAT            4816 ****               0 ****  **** 
   1570 WAT            4819 ****               0 ****  **** 
   1571 WAT            4822 ****               0 ****  **** 
   1572 WAT            4825 ****               0 ****  **** 
   1573 WAT            4828 ****               0 ****  **** 
   1574 WAT            4831 ****               0 ****  **** 
   1575 WAT            4834 ****               0 ****  **** 
   1576 WAT            4837 ****               0 ****  **** 
   1577 WAT            4840 ****               0 ****  **** 
   1578 WAT            4843 ****               0 ****  **** 
   1579 WAT            4846 ****               0 ****  **** 
   1580 WAT            4849 ****               0 ****  **** 
   1581 WAT            4852 ****               0 ****  **** 
   1582 WAT            4855 ****               0 ****  **** 
   1583 WAT            4858 ****               0 ****  **** 
   1584 WAT            4861 ****               0 ****  **** 
   1585 WAT            4864 ****               0 ****  **** 
   1586 WAT            4867 ****               0 ****  **** 
   1587 WAT            4870 ****               0 ****  **** 
   1588 WAT            4873 ****               0 ****  **** 
   1589 WAT            4876 ****               0 ****  **** 
   1590 WAT            4879 ****               0 ****  **** 
   1591 WAT            4882 ****               0 ****  **** 
   1592 WAT            4885 ****               0 ****  **** 
   1593 WAT            4888 ****               0 ****  **** 
   1594 WAT            4891 ****               0 ****  **** 
   1595 WAT            4894 ****               0 ****  **** 
   1596 WAT            4897 ****               0 ****  **** 
   1597 WAT            4900 ****               0 ****  **** 
   1598 WAT            4903 ****               0 ****  **** 
   1599 WAT            4906 ****               0 ****  **** 
   1600 WAT            4909 ****               0 ****  **** 
   1601 WAT            4912 ****               0 ****  **** 
   1602 WAT            4915 ****               0 ****  **** 
   1603 WAT            4918 ****               0 ****  **** 
   1604 WAT            4921 ****               0 ****  **** 
   1605 WAT            4924 ****               0 ****  **** 
   1606 WAT            4927 ****               0 ****  **** 
   1607 WAT            4930 ****               0 ****  **** 
   1608 WAT            4933 ****               0 ****  **** 
   1609 WAT            4936 ****               0 ****  **** 
   1610 WAT            4939 ****               0 ****  **** 
   1611 WAT            4942 ****               0 ****  **** 
   1612 WAT            4945 ****               0 ****  **** 
   1613 WAT            4948 ****               0 ****  **** 
   1614 WAT            4951 ****               0 ****  **** 
   1615 WAT            4954 ****               0 ****  **** 
   1616 WAT            4957 ****               0 ****  **** 
   1617 WAT            4960 ****               0 ****  **** 
   1618 WAT            4963 ****               0 ****  **** 
   1619 WAT            4966 ****               0 ****  **** 
   1620 WAT            4969 ****               0 ****  **** 
   1621 WAT            4972 ****               0 ****  **** 
   1622 WAT            4975 ****               0 ****  **** 
   1623 WAT            4978 ****               0 ****  **** 
   1624 WAT            4981 ****               0 ****  **** 
   1625 WAT            4984 ****               0 ****  **** 
   1626 WAT            4987 ****               0 ****  **** 
   1627 WAT            4990 ****               0 ****  **** 
   1628 WAT            4993 ****               0 ****  **** 
   1629 WAT            4996 ****               0 ****  **** 
   1630 WAT            4999 ****               0 ****  **** 
   1631 WAT            5002 ****               0 ****  **** 
   1632 WAT            5005 ****               0 ****  **** 
   1633 WAT            5008 ****               0 ****  **** 
   1634 WAT            5011 ****               0 ****  **** 
   1635 WAT            5014 ****               0 ****  **** 
   1636 WAT            5017 ****               0 ****  **** 
   1637 WAT            5020 ****               0 ****  **** 
   1638 WAT            5023 ****               0 ****  **** 
   1639 WAT            5026 ****               0 ****  **** 
   1640 WAT            5029 ****               0 ****  **** 
   1641 WAT            5032 ****               0 ****  **** 
   1642 WAT            5035 ****               0 ****  **** 
   1643 WAT            5038 ****               0 ****  **** 
   1644 WAT            5041 ****               0 ****  **** 
   1645 WAT            5044 ****               0 ****  **** 
   1646 WAT            5047 ****               0 ****  **** 
   1647 WAT            5050 ****               0 ****  **** 
   1648 WAT            5053 ****               0 ****  **** 
   1649 WAT            5056 ****               0 ****  **** 
   1650 WAT            5059 ****               0 ****  **** 
   1651 WAT            5062 ****               0 ****  **** 
   1652 WAT            5065 ****               0 ****  **** 
   1653 WAT            5068 ****               0 ****  **** 
   1654 WAT            5071 ****               0 ****  **** 
   1655 WAT            5074 ****               0 ****  **** 
   1656 WAT            5077 ****               0 ****  **** 
   1657 WAT            5080 ****               0 ****  **** 
   1658 WAT            5083 ****               0 ****  **** 
   1659 WAT            5086 ****               0 ****  **** 
   1660 WAT            5089 ****               0 ****  **** 
   1661 WAT            5092 ****               0 ****  **** 
   1662 WAT            5095 ****               0 ****  **** 
   1663 WAT            5098 ****               0 ****  **** 
   1664 WAT            5101 ****               0 ****  **** 
   1665 WAT            5104 ****               0 ****  **** 
   1666 WAT            5107 ****               0 ****  **** 
   1667 WAT            5110 ****               0 ****  **** 
   1668 WAT            5113 ****               0 ****  **** 
   1669 WAT            5116 ****               0 ****  **** 
   1670 WAT            5119 ****               0 ****  **** 
   1671 WAT            5122 ****               0 ****  **** 
   1672 WAT            5125 ****               0 ****  **** 
   1673 WAT            5128 ****               0 ****  **** 
   1674 WAT            5131 ****               0 ****  **** 
   1675 WAT            5134 ****               0 ****  **** 
   1676 WAT            5137 ****               0 ****  **** 
   1677 WAT            5140 ****               0 ****  **** 
   1678 WAT            5143 ****               0 ****  **** 
   1679 WAT            5146 ****               0 ****  **** 
   1680 WAT            5149 ****               0 ****  **** 
   1681 WAT            5152 ****               0 ****  **** 
   1682 WAT            5155 ****               0 ****  **** 
   1683 WAT            5158 ****               0 ****  **** 
   1684 WAT            5161 ****               0 ****  **** 
   1685 WAT            5164 ****               0 ****  **** 
   1686 WAT            5167 ****               0 ****  **** 
   1687 WAT            5170 ****               0 ****  **** 
   1688 WAT            5173 ****               0 ****  **** 
   1689 WAT            5176 ****               0 ****  **** 
   1690 WAT            5179 ****               0 ****  **** 
   1691 WAT            5182 ****               0 ****  **** 
   1692 WAT            5185 ****               0 ****  **** 
   1693 WAT            5188 ****               0 ****  **** 
   1694 WAT            5191 ****               0 ****  **** 
   1695 WAT            5194 ****               0 ****  **** 
   1696 WAT            5197 ****               0 ****  **** 
   1697 WAT            5200 ****               0 ****  **** 
   1698 WAT            5203 ****               0 ****  **** 
   1699 WAT            5206 ****               0 ****  **** 
   1700 WAT            5209 ****               0 ****  **** 
   1701 WAT            5212 ****               0 ****  **** 
   1702 WAT            5215 ****               0 ****  **** 
   1703 WAT            5218 ****               0 ****  **** 
   1704 WAT            5221 ****               0 ****  **** 
   1705 WAT            5224 ****               0 ****  **** 
   1706 WAT            5227 ****               0 ****  **** 
   1707 WAT            5230 ****               0 ****  **** 
   1708 WAT            5233 ****               0 ****  **** 
   1709 WAT            5236 ****               0 ****  **** 
   1710 WAT            5239 ****               0 ****  **** 
   1711 WAT            5242 ****               0 ****  **** 
   1712 WAT            5245 ****               0 ****  **** 
   1713 WAT            5248 ****               0 ****  **** 
   1714 WAT            5251 ****               0 ****  **** 
   1715 WAT            5254 ****               0 ****  **** 
   1716 WAT            5257 ****               0 ****  **** 
   1717 WAT            5260 ****               0 ****  **** 
   1718 WAT            5263 ****               0 ****  **** 
   1719 WAT            5266 ****               0 ****  **** 
   1720 WAT            5269 ****               0 ****  **** 
   1721 WAT            5272 ****               0 ****  **** 
   1722 WAT            5275 ****               0 ****  **** 
   1723 WAT            5278 ****               0 ****  **** 
   1724 WAT            5281 ****               0 ****  **** 
   1725 WAT            5284 ****               0 ****  **** 
   1726 WAT            5287 ****               0 ****  **** 
   1727 WAT            5290 ****               0 ****  **** 
   1728 WAT            5293 ****               0 ****  **** 
   1729 WAT            5296 ****               0 ****  **** 
   1730 WAT            5299 ****               0 ****  **** 
   1731 WAT            5302 ****               0 ****  **** 
   1732 WAT            5305 ****               0 ****  **** 
   1733 WAT            5308 ****               0 ****  **** 
   1734 WAT            5311 ****               0 ****  **** 
   1735 WAT            5314 ****               0 ****  **** 
   1736 WAT            5317 ****               0 ****  **** 
   1737 WAT            5320 ****               0 ****  **** 
   1738 WAT            5323 ****               0 ****  **** 
   1739 WAT            5326 ****               0 ****  **** 
   1740 WAT            5329 ****               0 ****  **** 
   1741 WAT            5332 ****               0 ****  **** 
   1742 WAT            5335 ****               0 ****  **** 
   1743 WAT            5338 ****               0 ****  **** 
   1744 WAT            5341 ****               0 ****  **** 
   1745 WAT            5344 ****               0 ****  **** 
   1746 WAT            5347 ****               0 ****  **** 
   1747 WAT            5350 ****               0 ****  **** 
   1748 WAT            5353 ****               0 ****  **** 
   1749 WAT            5356 ****               0 ****  **** 
   1750 WAT            5359 ****               0 ****  **** 
   1751 WAT            5362 ****               0 ****  **** 
   1752 WAT            5365 ****               0 ****  **** 
   1753 WAT            5368 ****               0 ****  **** 
   1754 WAT            5371 ****               0 ****  **** 
   1755 WAT            5374 ****               0 ****  **** 
   1756 WAT            5377 ****               0 ****  **** 
   1757 WAT            5380 ****               0 ****  **** 
   1758 WAT            5383 ****               0 ****  **** 
   1759 WAT            5386 ****               0 ****  **** 
   1760 WAT            5389 ****               0 ****  **** 
   1761 WAT            5392 ****               0 ****  **** 
   1762 WAT            5395 ****               0 ****  **** 
   1763 WAT            5398 ****               0 ****  **** 
   1764 WAT            5401 ****               0 ****  **** 
   1765 WAT            5404 ****               0 ****  **** 
   1766 WAT            5407 ****               0 ****  **** 
   1767 WAT            5410 ****               0 ****  **** 
   1768 WAT            5413 ****               0 ****  **** 
   1769 WAT            5416 ****               0 ****  **** 
   1770 WAT            5419 ****               0 ****  **** 
   1771 WAT            5422 ****               0 ****  **** 
   1772 WAT            5425 ****               0 ****  **** 
   1773 WAT            5428 ****               0 ****  **** 
   1774 WAT            5431 ****               0 ****  **** 
   1775 WAT            5434 ****               0 ****  **** 
   1776 WAT            5437 ****               0 ****  **** 
   1777 WAT            5440 ****               0 ****  **** 
   1778 WAT            5443 ****               0 ****  **** 
   1779 WAT            5446 ****               0 ****  **** 
   1780 WAT            5449 ****               0 ****  **** 
   1781 WAT            5452 ****               0 ****  **** 
   1782 WAT            5455 ****               0 ****  **** 
   1783 WAT            5458 ****               0 ****  **** 
   1784 WAT            5461 ****               0 ****  **** 
   1785 WAT            5464 ****               0 ****  **** 
   1786 WAT            5467 ****               0 ****  **** 
   1787 WAT            5470 ****               0 ****  **** 
   1788 WAT            5473 ****               0 ****  **** 
   1789 WAT            5476 ****               0 ****  **** 
   1790 WAT            5479 ****               0 ****  **** 
   1791 WAT            5482 ****               0 ****  **** 
   1792 WAT            5485 ****               0 ****  **** 
   1793 WAT            5488 ****               0 ****  **** 
   1794 WAT            5491 ****               0 ****  **** 
   1795 WAT            5494 ****               0 ****  **** 
   1796 WAT            5497 ****               0 ****  **** 
   1797 WAT            5500 ****               0 ****  **** 
   1798 WAT            5503 ****               0 ****  **** 
   1799 WAT            5506 ****               0 ****  **** 
   1800 WAT            5509 ****               0 ****  **** 
   1801 WAT            5512 ****               0 ****  **** 
   1802 WAT            5515 ****               0 ****  **** 
   1803 WAT            5518 ****               0 ****  **** 
   1804 WAT            5521 ****               0 ****  **** 
   1805 WAT            5524 ****               0 ****  **** 
   1806 WAT            5527 ****               0 ****  **** 
   1807 WAT            5530 ****               0 ****  **** 
   1808 WAT            5533 ****               0 ****  **** 
   1809 WAT            5536 ****               0 ****  **** 
   1810 WAT            5539 ****               0 ****  **** 
   1811 WAT            5542 ****               0 ****  **** 
   1812 WAT            5545 ****               0 ****  **** 
   1813 WAT            5548 ****               0 ****  **** 
   1814 WAT            5551 ****               0 ****  **** 
   1815 WAT            5554 ****               0 ****  **** 
   1816 WAT            5557 ****               0 ****  **** 
   1817 WAT            5560 ****               0 ****  **** 
   1818 WAT            5563 ****               0 ****  **** 
   1819 WAT            5566 ****               0 ****  **** 
   1820 WAT            5569 ****               0 ****  **** 
   1821 WAT            5572 ****               0 ****  **** 
   1822 WAT            5575 ****               0 ****  **** 
   1823 WAT            5578 ****               0 ****  **** 
   1824 WAT            5581 ****               0 ****  **** 
   1825 WAT            5584 ****               0 ****  **** 
   1826 WAT            5587 ****               0 ****  **** 
   1827 WAT            5590 ****               0 ****  **** 
   1828 WAT            5593 ****               0 ****  **** 
   1829 WAT            5596 ****               0 ****  **** 
   1830 WAT            5599 ****               0 ****  **** 
   1831 WAT            5602 ****               0 ****  **** 
   1832 WAT            5605 ****               0 ****  **** 
   1833 WAT            5608 ****               0 ****  **** 
   1834 WAT            5611 ****               0 ****  **** 
   1835 WAT            5614 ****               0 ****  **** 
   1836 WAT            5617 ****               0 ****  **** 
   1837 WAT            5620 ****               0 ****  **** 
   1838 WAT            5623 ****               0 ****  **** 
   1839 WAT            5626 ****               0 ****  **** 
   1840 WAT            5629 ****               0 ****  **** 
   1841 WAT            5632 ****               0 ****  **** 
   1842 WAT            5635 ****               0 ****  **** 
   1843 WAT            5638 ****               0 ****  **** 
   1844 WAT            5641 ****               0 ****  **** 
   1845 WAT            5644 ****               0 ****  **** 
   1846 WAT            5647 ****               0 ****  **** 
   1847 WAT            5650 ****               0 ****  **** 
   1848 WAT            5653 ****               0 ****  **** 
   1849 WAT            5656 ****               0 ****  **** 
   1850 WAT            5659 ****               0 ****  **** 
   1851 WAT            5662 ****               0 ****  **** 
   1852 WAT            5665 ****               0 ****  **** 
   1853 WAT            5668 ****               0 ****  **** 
   1854 WAT            5671 ****               0 ****  **** 
   1855 WAT            5674 ****               0 ****  **** 
   1856 WAT            5677 ****               0 ****  **** 
   1857 WAT            5680 ****               0 ****  **** 
   1858 WAT            5683 ****               0 ****  **** 
   1859 WAT            5686 ****               0 ****  **** 
   1860 WAT            5689 ****               0 ****  **** 
   1861 WAT            5692 ****               0 ****  **** 
   1862 WAT            5695 ****               0 ****  **** 
   1863 WAT            5698 ****               0 ****  **** 
   1864 WAT            5701 ****               0 ****  **** 
   1865 WAT            5704 ****               0 ****  **** 
   1866 WAT            5707 ****               0 ****  **** 
   1867 WAT            5710 ****               0 ****  **** 
   1868 WAT            5713 ****               0 ****  **** 
   1869 WAT            5716 ****               0 ****  **** 
   1870 WAT            5719 ****               0 ****  **** 
   1871 WAT            5722 ****               0 ****  **** 
   1872 WAT            5725 ****               0 ****  **** 
   1873 WAT            5728 ****               0 ****  **** 
   1874 WAT            5731 ****               0 ****  **** 
   1875 WAT            5734 ****               0 ****  **** 
   1876 WAT            5737 ****               0 ****  **** 
   1877 WAT            5740 ****               0 ****  **** 
   1878 WAT            5743 ****               0 ****  **** 
   1879 WAT            5746 ****               0 ****  **** 
   1880 WAT            5749 ****               0 ****  **** 
   1881 WAT            5752 ****               0 ****  **** 
   1882 WAT            5755 ****               0 ****  **** 
   1883 WAT            5758 ****               0 ****  **** 
   1884 WAT            5761 ****               0 ****  **** 
   1885 WAT            5764 ****               0 ****  **** 
   1886 WAT            5767 ****               0 ****  **** 
   1887 WAT            5770 ****               0 ****  **** 
   1888 WAT            5773 ****               0 ****  **** 
   1889 WAT            5776 ****               0 ****  **** 
   1890 WAT            5779 ****               0 ****  **** 
   1891 WAT            5782 ****               0 ****  **** 
   1892 WAT            5785 ****               0 ****  **** 
   1893 WAT            5788 ****               0 ****  **** 
   1894 WAT            5791 ****               0 ****  **** 
   1895 WAT            5794 ****               0 ****  **** 
   1896 WAT            5797 ****               0 ****  **** 
   1897 WAT            5800 ****               0 ****  **** 
   1898 WAT            5803 ****               0 ****  **** 
   1899 WAT            5806 ****               0 ****  **** 
   1900 WAT            5809 ****               0 ****  **** 
   1901 WAT            5812 ****               0 ****  **** 
   1902 WAT            5815 ****               0 ****  **** 
   1903 WAT            5818 ****               0 ****  **** 
   1904 WAT            5821 ****               0 ****  **** 
   1905 WAT            5824 ****               0 ****  **** 
   1906 WAT            5827 ****               0 ****  **** 
   1907 WAT            5830 ****               0 ****  **** 
   1908 WAT            5833 ****               0 ****  **** 
   1909 WAT            5836 ****               0 ****  **** 
   1910 WAT            5839 ****               0 ****  **** 
   1911 WAT            5842 ****               0 ****  **** 
   1912 WAT            5845 ****               0 ****  **** 
   1913 WAT            5848 ****               0 ****  **** 
   1914 WAT            5851 ****               0 ****  **** 
   1915 WAT            5854 ****               0 ****  **** 
   1916 WAT            5857 ****               0 ****  **** 
   1917 WAT            5860 ****               0 ****  **** 
   1918 WAT            5863 ****               0 ****  **** 
   1919 WAT            5866 ****               0 ****  **** 
   1920 WAT            5869 ****               0 ****  **** 
   1921 WAT            5872 ****               0 ****  **** 
   1922 WAT            5875 ****               0 ****  **** 
   1923 WAT            5878 ****               0 ****  **** 
   1924 WAT            5881 ****               0 ****  **** 
   1925 WAT            5884 ****               0 ****  **** 
   1926 WAT            5887 ****               0 ****  **** 
   1927 WAT            5890 ****               0 ****  **** 
   1928 WAT            5893 ****               0 ****  **** 
   1929 WAT            5896 ****               0 ****  **** 
   1930 WAT            5899 ****               0 ****  **** 
   1931 WAT            5902 ****               0 ****  **** 
   1932 WAT            5905 ****               0 ****  **** 
   1933 WAT            5908 ****               0 ****  **** 
   1934 WAT            5911 ****               0 ****  **** 
   1935 WAT            5914 ****               0 ****  **** 
   1936 WAT            5917 ****               0 ****  **** 
   1937 WAT            5920 ****               0 ****  **** 
   1938 WAT            5923 ****               0 ****  **** 
   1939 WAT            5926 ****               0 ****  **** 
   1940 WAT            5929 ****               0 ****  **** 
   1941 WAT            5932 ****               0 ****  **** 
   1942 WAT            5935 ****               0 ****  **** 
   1943 WAT            5938 ****               0 ****  **** 
   1944 WAT            5941 ****               0 ****  **** 
   1945 WAT            5944 ****               0 ****  **** 
   1946 WAT            5947 ****               0 ****  **** 
   1947 WAT            5950 ****               0 ****  **** 
   1948 WAT            5953 ****               0 ****  **** 
   1949 WAT            5956 ****               0 ****  **** 
   1950 WAT            5959 ****               0 ****  **** 
   1951 WAT            5962 ****               0 ****  **** 
   1952 WAT            5965 ****               0 ****  **** 
   1953 WAT            5968 ****               0 ****  **** 
   1954 WAT            5971 ****               0 ****  **** 
   1955 WAT            5974 ****               0 ****  **** 
   1956 WAT            5977 ****               0 ****  **** 
   1957 WAT            5980 ****               0 ****  **** 
   1958 WAT            5983 ****               0 ****  **** 
   1959 WAT            5986 ****               0 ****  **** 
   1960 WAT            5989 ****               0 ****  **** 
   1961 WAT            5992 ****               0 ****  **** 
   1962 WAT            5995 ****               0 ****  **** 
   1963 WAT            5998 ****               0 ****  **** 
   1964 WAT            6001 ****               0 ****  **** 
   1965 WAT            6004 ****               0 ****  **** 
   1966 WAT            6007 ****               0 ****  **** 
   1967 WAT            6010 ****               0 ****  **** 
   1968 WAT            6013 ****               0 ****  **** 
   1969 WAT            6016 ****               0 ****  **** 
   1970 WAT            6019 ****               0 ****  **** 
   1971 WAT            6022 ****               0 ****  **** 
   1972 WAT            6025 ****               0 ****  **** 
   1973 WAT            6028 ****               0 ****  **** 
   1974 WAT            6031 ****               0 ****  **** 
   1975 WAT            6034 ****               0 ****  **** 
   1976 WAT            6037 ****               0 ****  **** 
   1977 WAT            6040 ****               0 ****  **** 
   1978 WAT            6043 ****               0 ****  **** 
   1979 WAT            6046 ****               0 ****  **** 
   1980 WAT            6049 ****               0 ****  **** 
   1981 WAT            6052 ****               0 ****  **** 
   1982 WAT            6055 ****               0 ****  **** 
   1983 WAT            6058 ****               0 ****  **** 
   1984 WAT            6061 ****               0 ****  **** 
   1985 WAT            6064 ****               0 ****  **** 
   1986 WAT            6067 ****               0 ****  **** 
   1987 WAT            6070 ****               0 ****  **** 
   1988 WAT            6073 ****               0 ****  **** 
   1989 WAT            6076 ****               0 ****  **** 
   1990 WAT            6079 ****               0 ****  **** 
   1991 WAT            6082 ****               0 ****  **** 
   1992 WAT            6085 ****               0 ****  **** 
   1993 WAT            6088 ****               0 ****  **** 
   1994 WAT            6091 ****               0 ****  **** 
   1995 WAT            6094 ****               0 ****  **** 
   1996 WAT            6097 ****               0 ****  **** 
   1997 WAT            6100 ****               0 ****  **** 
   1998 WAT            6103 ****               0 ****  **** 
   1999 WAT            6106 ****               0 ****  **** 
   2000 WAT            6109 ****               0 ****  **** 
   2001 WAT            6112 ****               0 ****  **** 
   2002 WAT            6115 ****               0 ****  **** 
   2003 WAT            6118 ****               0 ****  **** 
   2004 WAT            6121 ****               0 ****  **** 
   2005 WAT            6124 ****               0 ****  **** 
   2006 WAT            6127 ****               0 ****  **** 
   2007 WAT            6130 ****               0 ****  **** 
   2008 WAT            6133 ****               0 ****  **** 
   2009 WAT            6136 ****               0 ****  **** 
   2010 WAT            6139 ****               0 ****  **** 
   2011 WAT            6142 ****               0 ****  **** 
   2012 WAT            6145 ****               0 ****  **** 
   2013 WAT            6148 ****               0 ****  **** 
   2014 WAT            6151 ****               0 ****  **** 
   2015 WAT            6154 ****               0 ****  **** 
   2016 WAT            6157 ****               0 ****  **** 
   2017 WAT            6160 ****               0 ****  **** 
   2018 WAT            6163 ****               0 ****  **** 
   2019 WAT            6166 ****               0 ****  **** 
   2020 WAT            6169 ****               0 ****  **** 
   2021 WAT            6172 ****               0 ****  **** 
   2022 WAT            6175 ****               0 ****  **** 
   2023 WAT            6178 ****               0 ****  **** 
   2024 WAT            6181 ****               0 ****  **** 
   2025 WAT            6184 ****               0 ****  **** 
   2026 WAT            6187 ****               0 ****  **** 
   2027 WAT            6190 ****               0 ****  **** 
   2028 WAT            6193 ****               0 ****  **** 
   2029 WAT            6196 ****               0 ****  **** 
   2030 WAT            6199 ****               0 ****  **** 
   2031 WAT            6202 ****               0 ****  **** 
   2032 WAT            6205 ****               0 ****  **** 
   2033 WAT            6208 ****               0 ****  **** 
   2034 WAT            6211 ****               0 ****  **** 
   2035 WAT            6214 ****               0 ****  **** 
   2036 WAT            6217 ****               0 ****  **** 
   2037 WAT            6220 ****               0 ****  **** 
   2038 WAT            6223 ****               0 ****  **** 
   2039 WAT            6226 ****               0 ****  **** 
   2040 WAT            6229 ****               0 ****  **** 
   2041 WAT            6232 ****               0 ****  **** 
   2042 WAT            6235 ****               0 ****  **** 
   2043 WAT            6238 ****               0 ****  **** 
   2044 WAT            6241 ****               0 ****  **** 
   2045 WAT            6244 ****               0 ****  **** 
   2046 WAT            6247 ****               0 ****  **** 
   2047 WAT            6250 ****               0 ****  **** 
   2048 WAT            6253 ****               0 ****  **** 
   2049 WAT            6256 ****               0 ****  **** 
   2050 WAT            6259 ****               0 ****  **** 
   2051 WAT            6262 ****               0 ****  **** 
   2052 WAT            6265 ****               0 ****  **** 
   2053 WAT            6268 ****               0 ****  **** 
   2054 WAT            6271 ****               0 ****  **** 
   2055 WAT            6274 ****               0 ****  **** 
   2056 WAT            6277 ****               0 ****  **** 
   2057 WAT            6280 ****               0 ****  **** 
   2058 WAT            6283 ****               0 ****  **** 
   2059 WAT            6286 ****               0 ****  **** 
   2060 WAT            6289 ****               0 ****  **** 
   2061 WAT            6292 ****               0 ****  **** 
   2062 WAT            6295 ****               0 ****  **** 
   2063 WAT            6298 ****               0 ****  **** 
   2064 WAT            6301 ****               0 ****  **** 
   2065 WAT            6304 ****               0 ****  **** 
   2066 WAT            6307 ****               0 ****  **** 
   2067 WAT            6310 ****               0 ****  **** 
   2068 WAT            6313 ****               0 ****  **** 
   2069 WAT            6316 ****               0 ****  **** 
   2070 WAT            6319 ****               0 ****  **** 
   2071 WAT            6322 ****               0 ****  **** 
   2072 WAT            6325 ****               0 ****  **** 
   2073 WAT            6328 ****               0 ****  **** 
   2074 WAT            6331 ****               0 ****  **** 
   2075 WAT            6334 ****               0 ****  **** 
   2076 WAT            6337 ****               0 ****  **** 
   2077 WAT            6340 ****               0 ****  **** 
   2078 WAT            6343 ****               0 ****  **** 
   2079 WAT            6346 ****               0 ****  **** 
   2080 WAT            6349 ****               0 ****  **** 
   2081 WAT            6352 ****               0 ****  **** 
   2082 WAT            6355 ****               0 ****  **** 
   2083 WAT            6358 ****               0 ****  **** 
   2084 WAT            6361 ****               0 ****  **** 
   2085 WAT            6364 ****               0 ****  **** 
   2086 WAT            6367 ****               0 ****  **** 
   2087 WAT            6370 ****               0 ****  **** 
   2088 WAT            6373 ****               0 ****  **** 
   2089 WAT            6376 ****               0 ****  **** 
   2090 WAT            6379 ****               0 ****  **** 
   2091 WAT            6382 ****               0 ****  **** 
   2092 WAT            6385 ****               0 ****  **** 
   2093 WAT            6388 ****               0 ****  **** 
   2094 WAT            6391 ****               0 ****  **** 
   2095 WAT            6394 ****               0 ****  **** 
   2096 WAT            6397 ****               0 ****  **** 
   2097 WAT            6400 ****               0 ****  **** 
   2098 WAT            6403 ****               0 ****  **** 
   2099 WAT            6406 ****               0 ****  **** 
   2100 WAT            6409 ****               0 ****  **** 
   2101 WAT            6412 ****               0 ****  **** 
   2102 WAT            6415 ****               0 ****  **** 
   2103 WAT            6418 ****               0 ****  **** 
   2104 WAT            6421 ****               0 ****  **** 
   2105 WAT            6424 ****               0 ****  **** 
   2106 WAT            6427 ****               0 ****  **** 
   2107 WAT            6430 ****               0 ****  **** 
   2108 WAT            6433 ****               0 ****  **** 
   2109 WAT            6436 ****               0 ****  **** 
   2110 WAT            6439 ****               0 ****  **** 
   2111 WAT            6442 ****               0 ****  **** 
   2112 WAT            6445 ****               0 ****  **** 
   2113 WAT            6448 ****               0 ****  **** 
   2114 WAT            6451 ****               0 ****  **** 
   2115 WAT            6454 ****               0 ****  **** 
   2116 WAT            6457 ****               0 ****  **** 
   2117 WAT            6460 ****               0 ****  **** 
   2118 WAT            6463 ****               0 ****  **** 
   2119 WAT            6466 ****               0 ****  **** 
   2120 WAT            6469 ****               0 ****  **** 
   2121 WAT            6472 ****               0 ****  **** 
   2122 WAT            6475 ****               0 ****  **** 
   2123 WAT            6478 ****               0 ****  **** 
   2124 WAT            6481 ****               0 ****  **** 
   2125 WAT            6484 ****               0 ****  **** 
   2126 WAT            6487 ****               0 ****  **** 
   2127 WAT            6490 ****               0 ****  **** 
   2128 WAT            6493 ****               0 ****  **** 
   2129 WAT            6496 ****               0 ****  **** 
   2130 WAT            6499 ****               0 ****  **** 
   2131 WAT            6502 ****               0 ****  **** 
   2132 WAT            6505 ****               0 ****  **** 
   2133 WAT            6508 ****               0 ****  **** 
   2134 WAT            6511 ****               0 ****  **** 
   2135 WAT            6514 ****               0 ****  **** 
   2136 WAT            6517 ****               0 ****  **** 
   2137 WAT            6520 ****               0 ****  **** 
   2138 WAT            6523 ****               0 ****  **** 
   2139 WAT            6526 ****               0 ****  **** 
   2140 WAT            6529 ****               0 ****  **** 
   2141 WAT            6532 ****               0 ****  **** 
   2142 WAT            6535 ****               0 ****  **** 
   2143 WAT            6538 ****               0 ****  **** 
   2144 WAT            6541 ****               0 ****  **** 
   2145 WAT            6544 ****               0 ****  **** 
   2146 WAT            6547 ****               0 ****  **** 
   2147 WAT            6550 ****               0 ****  **** 
   2148 WAT            6553 ****               0 ****  **** 
   2149 WAT            6556 ****               0 ****  **** 
   2150 WAT            6559 ****               0 ****  **** 
   2151 WAT            6562 ****               0 ****  **** 
   2152 WAT            6565 ****               0 ****  **** 
   2153 WAT            6568 ****               0 ****  **** 
   2154 WAT            6571 ****               0 ****  **** 
   2155 WAT            6574 ****               0 ****  **** 
   2156 WAT            6577 ****               0 ****  **** 
   2157 WAT            6580 ****               0 ****  **** 
   2158 WAT            6583 ****               0 ****  **** 
   2159 WAT            6586 ****               0 ****  **** 
   2160 WAT            6589 ****               0 ****  **** 
   2161 WAT            6592 ****               0 ****  **** 
   2162 WAT            6595 ****               0 ****  **** 
   2163 WAT            6598 ****               0 ****  **** 
   2164 WAT            6601 ****               0 ****  **** 
   2165 WAT            6604 ****               0 ****  **** 
   2166 WAT            6607 ****               0 ****  **** 
   2167 WAT            6610 ****               0 ****  **** 
   2168 WAT            6613 ****               0 ****  **** 
   2169 WAT            6616 ****               0 ****  **** 
   2170 WAT            6619 ****               0 ****  **** 
   2171 WAT            6622 ****               0 ****  **** 
   2172 WAT            6625 ****               0 ****  **** 
   2173 WAT            6628 ****               0 ****  **** 
   2174 WAT            6631 ****               0 ****  **** 
   2175 WAT            6634 ****               0 ****  **** 
   2176 WAT            6637 ****               0 ****  **** 
   2177 WAT            6640 ****               0 ****  **** 
   2178 WAT            6643 ****               0 ****  **** 
   2179 WAT            6646 ****               0 ****  **** 
   2180 WAT            6649 ****               0 ****  **** 
   2181 WAT            6652 ****               0 ****  **** 
   2182 WAT            6655 ****               0 ****  **** 
   2183 WAT            6658 ****               0 ****  **** 
   2184 WAT            6661 ****               0 ****  **** 
   2185 WAT            6664 ****               0 ****  **** 
   2186 WAT            6667 ****               0 ****  **** 
   2187 WAT            6670 ****               0 ****  **** 
   2188 WAT            6673 ****               0 ****  **** 
   2189 WAT            6676 ****               0 ****  **** 
   2190 WAT            6679 ****               0 ****  **** 
   2191 WAT            6682 ****               0 ****  **** 
   2192 WAT            6685 ****               0 ****  **** 
   2193 WAT            6688 ****               0 ****  **** 
   2194 WAT            6691 ****               0 ****  **** 
   2195 WAT            6694 ****               0 ****  **** 
   2196 WAT            6697 ****               0 ****  **** 
   2197 WAT            6700 ****               0 ****  **** 
   2198 WAT            6703 ****               0 ****  **** 
   2199 WAT            6706 ****               0 ****  **** 
   2200 WAT            6709 ****               0 ****  **** 
   2201 WAT            6712 ****               0 ****  **** 
   2202 WAT            6715 ****               0 ****  **** 
   2203 WAT            6718 ****               0 ****  **** 
   2204 WAT            6721 ****               0 ****  **** 
   2205 WAT            6724 ****               0 ****  **** 
   2206 WAT            6727 ****               0 ****  **** 
   2207 WAT            6730 ****               0 ****  **** 
   2208 WAT            6733 ****               0 ****  **** 
   2209 WAT            6736 ****               0 ****  **** 
   2210 WAT            6739 ****               0 ****  **** 
   2211 WAT            6742 ****               0 ****  **** 
   2212 WAT            6745 ****               0 ****  **** 
   2213 WAT            6748 ****               0 ****  **** 
   2214 WAT            6751 ****               0 ****  **** 
   2215 WAT            6754 ****               0 ****  **** 
   2216 WAT            6757 ****               0 ****  **** 
   2217 WAT            6760 ****               0 ****  **** 
   2218 WAT            6763 ****               0 ****  **** 
   2219 WAT            6766 ****               0 ****  **** 
   2220 WAT            6769 ****               0 ****  **** 
   2221 WAT            6772 ****               0 ****  **** 
   2222 WAT            6775 ****               0 ****  **** 
   2223 WAT            6778 ****               0 ****  **** 
   2224 WAT            6781 ****               0 ****  **** 
   2225 WAT            6784 ****               0 ****  **** 
   2226 WAT            6787 ****               0 ****  **** 
   2227 WAT            6790 ****               0 ****  **** 
   2228 WAT            6793 ****               0 ****  **** 
   2229 WAT            6796 ****               0 ****  **** 
   2230 WAT            6799 ****               0 ****  **** 
   2231 WAT            6802 ****               0 ****  **** 
