@<TRIPOS>MOLECULE
Cpptraj generated mol2 file.
  147   154     7     0     0
SMALL
USER_CHARGES


@<TRIPOS>ATOM
      1 C1         16.6428   14.6231   33.9447 c3         1 MGO      0.304529
      2 H1         15.6508   14.1481   33.8157 h2         1 MGO      0.090782
      3 O1         16.5168   16.0551   34.2477 os         1 MGO     -0.453070
      4 C2         17.3498   13.9361   35.1097 c3         1 MGO      0.092199
      5 H2         17.4008   12.8591   34.9247 h1         1 MGO      0.102926
      6 O2         16.6288   14.1821   36.3287 oh         1 MGO     -0.586639
      7 HO2        16.0278   14.9371   36.2127 ho         1 MGO      0.425065
      8 C3         18.7438   14.4971   35.2987 c3         1 MGO      0.093211
      9 H3         18.6778   15.5491   35.5937 h1         1 MGO      0.064468
     10 O3         19.3658   13.7161   36.3317 oh         1 MGO     -0.592567
     11 HO3        18.6748   13.5281   36.9817 ho         1 MGO      0.421017
     12 C4         19.5428   14.3631   34.0117 c3         1 MGO      0.127621
     13 H4         19.7008   13.3021   33.7997 h1         1 MGO      0.080661
     14 C5         18.8128   15.0201   32.8307 c3         1 MGO      0.104343
     15 H5         18.7078   16.0851   33.0527 h1         1 MGO      0.068516
     16 O5         17.4488   14.4391   32.7227 os         1 MGO     -0.427383
     17 C6         19.5008   14.9361   31.4607 c3         1 MGO      0.141081
     18 H61        20.1628   15.7951   31.3287 h1         1 MGO      0.057384
     19 H62        18.7538   14.9591   30.6637 h1         1 MGO      0.057384
     20 O6         20.2798   13.7381   31.3547 oh         1 MGO     -0.593555
     21 HO6        21.1708   13.9281   31.6767 ho         1 MGO      0.422027
     22 C1         13.5678   19.0201   33.9457 c3         2 MGO      0.304529
     23 H1         12.5768   19.4991   33.8177 h2         2 MGO      0.090782
     24 O1         14.6088   20.0111   34.2487 os         2 MGO     -0.453070
     25 C2         13.4708   18.0381   35.1107 c3         2 MGO      0.092199
     26 H2         12.6608   17.3271   34.9257 h1         2 MGO      0.102926
     27 O2         13.2158   18.7551   36.3287 oh         2 MGO     -0.586639
     28 HO2        13.4308   19.6951   36.2137 ho         2 MGO      0.425065
     29 C3         14.7808   17.2991   35.2977 c3         2 MGO      0.093211
     30 H3         15.5618   18.0051   35.5937 h1         2 MGO      0.064468
     31 O3         14.5568   16.3261   36.3307 oh         2 MGO     -0.592567
     32 HO3        13.9788   16.7481   36.9827 ho         2 MGO      0.421017
     33 C4         15.1728   16.5901   34.0127 c3         2 MGO      0.127621
     34 H4         14.4418   15.8061   33.7997 h1         2 MGO      0.080661
     35 C5         15.2308   17.5711   32.8307 c3         2 MGO      0.104343
     36 H5         15.9978   18.3161   33.0537 h1         2 MGO      0.068516
     37 O5         13.9258   18.2761   32.7227 os         2 MGO     -0.427383
     38 C6         15.5938   16.9811   31.4607 c3         2 MGO      0.141081
     39 H61        16.6778   16.9991   31.3277 h1         2 MGO      0.057384
     40 H62        15.1458   17.5791   30.6637 h1         2 MGO      0.057384
     41 O6         15.1418   15.6251   31.3547 oh         2 MGO     -0.593555
     42 HO6        15.8468   15.0471   31.6767 ho         2 MGO      0.422027
     43 C1         15.0878   24.1661   33.9467 c3         3 MGO      0.304529
     44 H1         14.8458   25.2391   33.8177 h2         3 MGO      0.090782
     45 O1         16.5118   23.9691   34.2487 os         3 MGO     -0.453070
     46 C2         14.2618   23.6291   35.1107 c3         3 MGO      0.092199
     47 H2         13.1998   23.8181   34.9267 h1         3 MGO      0.102926
     48 O2         14.6628   24.2761   36.3297 oh         3 MGO     -0.586639
     49 HO2        15.5308   24.6941   36.2137 ho         3 MGO      0.425065
     50 C3         14.4998   22.1441   35.2987 c3         3 MGO      0.093211
     51 H3         15.5388   21.9741   35.5937 h1         3 MGO      0.064468
     52 O3         13.5998   21.7121   36.3317 oh         3 MGO     -0.592567
     53 HO3        13.5698   22.4281   36.9837 ho         3 MGO      0.421017
     54 C4         14.1888   21.3961   34.0127 c3         3 MGO      0.127621
     55 H4         13.1198   21.4791   33.8017 h1         3 MGO      0.080661
     56 C5         14.9918   21.9621   32.8317 c3         3 MGO      0.104343
     57 H5         16.0528   21.8271   33.0537 h1         3 MGO      0.068516
     58 O5         14.7288   23.4221   32.7237 os         3 MGO     -0.427383
     59 C6         14.7568   21.3101   31.4617 c3         3 MGO      0.141081
     60 H61        15.4458   20.4731   31.3287 h1         3 MGO      0.057384
     61 H62        14.9438   22.0341   30.6637 h1         3 MGO      0.057384
     62 O6         13.4138   20.8171   31.3557 oh         3 MGO     -0.593555
     63 HO6        13.4018   19.9061   31.6767 ho         3 MGO      0.422027
     64 C1         20.0598   26.1851   33.9447 c3         4 MGO      0.304529
     65 H1         20.7468   27.0441   33.8167 h2         4 MGO      0.090782
     66 O1         20.7928   24.9491   34.2477 os         4 MGO     -0.453070
     67 C2         19.1238   26.4971   35.1097 c3         4 MGO      0.092199
     68 H2         18.6108   27.4451   34.9247 h1         4 MGO      0.102926
     69 O2         19.8808   26.5871   36.3287 oh         4 MGO     -0.586639
     70 HO2        20.7498   26.1691   36.2127 ho         4 MGO      0.425065
     71 C3         18.1128   25.3861   35.2977 c3         4 MGO      0.093211
     72 H3         18.6268   24.4671   35.5937 h1         4 MGO      0.064468
     73 O3         17.2128   25.8201   36.3307 oh         4 MGO     -0.592567
     74 HO3        17.7538   26.2891   36.9817 ho         4 MGO      0.421017
     75 C4         17.3328   25.1601   34.0127 c3         4 MGO      0.127621
     76 H4         16.7318   26.0481   33.8007 h1         4 MGO      0.080661
     77 C5         18.2758   24.8851   32.8317 c3         4 MGO      0.104343
     78 H5         18.8318   23.9721   33.0537 h1         4 MGO      0.068516
     79 O5         19.2538   26.0011   32.7227 os         4 MGO     -0.427383
     80 C6         17.6198   24.6631   31.4607 c3         4 MGO      0.141081
     81 H61        17.3948   23.6011   31.3287 h1         4 MGO      0.057384
     82 H62        18.3028   24.9661   30.6637 h1         4 MGO      0.057384
     83 O6         16.3978   25.4041   31.3557 oh         4 MGO     -0.593555
     84 HO6        15.6768   24.8471   31.6777 ho         4 MGO      0.422027
     85 C1         24.7378   23.5581   33.9447 c3         5 MGO      0.304529
     86 H1         25.8378   23.5561   33.8147 h2         5 MGO      0.090782
     87 O1         24.2288   22.2141   34.2477 os         5 MGO     -0.453070
     88 C2         24.3988   24.4841   35.1087 c3         5 MGO      0.092199
     89 H2         24.8198   25.4761   34.9237 h1         5 MGO      0.102926
     90 O2         24.9398   23.9491   36.3277 oh         5 MGO     -0.586639
     91 HO2        25.1548   23.0091   36.2127 ho         5 MGO      0.425065
     92 C3         22.8988   24.5821   35.2977 c3         5 MGO      0.093211
     93 H3         22.5008   23.6071   35.5927 h1         5 MGO      0.064468
     94 O3         22.6768   25.5561   36.3307 oh         5 MGO     -0.592567
     95 HO3        23.3808   25.4261   36.9817 ho         5 MGO      0.421017
     96 C4         22.2368   25.0511   34.0117 c3         5 MGO      0.127621
     97 H4         22.5558   26.0741   33.7987 h1         5 MGO      0.080661
     98 C5         22.6088   24.1411   32.8307 c3         5 MGO      0.104343
     99 H5         22.2428   23.1371   33.0537 h1         5 MGO      0.068516
    100 O5         24.0918   24.0731   32.7217 os         5 MGO     -0.427383
    101 C6         22.0258   24.5151   31.4597 c3         5 MGO      0.141081
    102 H61        21.0568   24.0291   31.3277 h1         5 MGO      0.057384
    103 H62        22.6888   24.1701   30.6627 h1         5 MGO      0.057384
    104 O6         21.8448   25.9331   31.3537 oh         5 MGO     -0.593555
    105 HO6        20.9588   26.1481   31.6767 ho         5 MGO      0.422027
    106 C1         25.5998   18.2621   33.9457 c3         6 MGO      0.304529
    107 H1         26.2848   17.4001   33.8177 h2         6 MGO      0.090782
    108 O1         24.2318   17.8211   34.2487 os         6 MGO     -0.453070
    109 C2         26.1128   19.1051   35.1107 c3         6 MGO      0.092199
    110 H2         27.1508   19.3941   34.9257 h1         6 MGO      0.102926
    111 O2         26.0318   18.3481   36.3287 oh         6 MGO     -0.586639
    112 HO2        25.4308   17.5941   36.2137 ho         6 MGO      0.425065
    113 C3         25.2538   20.3381   35.2987 c3         6 MGO      0.093211
    114 H3         24.2438   20.0401   35.5937 h1         6 MGO      0.064468
    115 O3         25.8768   21.1191   36.3317 oh         6 MGO     -0.592567
    116 HO3        26.2148   20.4871   36.9827 ho         6 MGO      0.421017
    117 C4         25.2088   21.1471   34.0117 c3         6 MGO      0.127621
    118 H4         26.2068   21.5371   33.7997 h1         6 MGO      0.080661
    119 C5         24.7298   20.2891   32.8317 c3         6 MGO      0.104343
    120 H5         23.7168   19.9501   33.0527 h1         6 MGO      0.068516
    121 O5         25.6008   19.0871   32.7227 os         6 MGO     -0.427383
    122 C6         24.6598   20.9781   31.4607 c3         6 MGO      0.141081
    123 H61        23.6758   21.4321   31.3287 h1         6 MGO      0.057384
    124 H62        24.8038   20.2441   30.6637 h1         6 MGO      0.057384
    125 O6         25.6548   22.0041   31.3547 oh         6 MGO     -0.593555
    126 HO6        25.2708   22.8311   31.6757 ho         6 MGO      0.422027
    127 C1         21.9968   14.2851   33.9457 c3         7 MGO      0.304529
    128 H1         21.7498   13.2131   33.8177 h2         7 MGO      0.090782
    129 O1         20.8008   15.0811   34.2487 os         7 MGO     -0.453070
    130 C2         22.9758   14.4101   35.1107 c3         7 MGO      0.092199
    131 H2         23.8488   13.7791   34.9257 h1         7 MGO      0.102926
    132 O2         22.3328   14.0021   36.3287 oh         7 MGO     -0.586639
    133 HO2        21.3688   14.0011   36.2137 ho         7 MGO      0.425065
    134 C3         23.4048   15.8501   35.2987 c3         7 MGO      0.093211
    135 H3         22.5428   16.4551   35.5937 h1         7 MGO      0.064468
    136 O3         24.4028   15.8501   36.3327 oh         7 MGO     -0.592567
    137 HO3        24.1198   15.1931   36.9827 ho         7 MGO      0.421017
    138 C4         24.0098   16.3911   34.0127 c3         7 MGO      0.127621
    139 H4         24.9368   15.8531   33.8007 h1         7 MGO      0.080661
    140 C5         23.0398   16.2301   32.8307 c3         7 MGO      0.104343
    141 H5         22.1428   16.8121   33.0537 h1         7 MGO      0.068516
    142 O5         22.6438   14.8011   32.7237 os         7 MGO     -0.427383
    143 C6         23.5348   16.7151   31.4607 c3         7 MGO      0.141081
    144 H61        23.2768   17.7681   31.3277 h1         7 MGO      0.057384
    145 H62        23.0518   16.1451   30.6637 h1         7 MGO      0.057384
    146 O6         24.9588   16.5761   31.3557 oh         7 MGO     -0.593555
    147 HO6        25.3648   17.3911   31.6777 ho         7 MGO      0.422027
@<TRIPOS>BOND
    1    17    20 1
    2    14    16 1
    3    14    17 1
    4    12    14 1
    5    12   129 1
    6     8    10 1
    7     8    12 1
    8     4     6 1
    9     4     8 1
   10     3    33 1
   11     1     3 1
   12     1     4 1
   13     1    16 1
   14    38    41 1
   15    35    37 1
   16    35    38 1
   17    33    35 1
   18    29    31 1
   19    29    33 1
   20    25    27 1
   21    25    29 1
   22    24    54 1
   23    22    24 1
   24    22    25 1
   25    22    37 1
   26    59    62 1
   27    56    58 1
   28    56    59 1
   29    54    56 1
   30    50    52 1
   31    50    54 1
   32    46    48 1
   33    46    50 1
   34    45    75 1
   35    43    45 1
   36    43    46 1
   37    43    58 1
   38    80    83 1
   39    77    79 1
   40    77    80 1
   41    75    77 1
   42    71    73 1
   43    71    75 1
   44    67    69 1
   45    67    71 1
   46    66    96 1
   47    64    66 1
   48    64    67 1
   49    64    79 1
   50   101   104 1
   51    98   100 1
   52    98   101 1
   53    96    98 1
   54    92    94 1
   55    92    96 1
   56    88    90 1
   57    88    92 1
   58    87   117 1
   59    85    87 1
   60    85    88 1
   61    85   100 1
   62   122   125 1
   63   119   121 1
   64   119   122 1
   65   117   119 1
   66   113   115 1
   67   113   117 1
   68   109   111 1
   69   109   113 1
   70   108   138 1
   71   106   108 1
   72   106   109 1
   73   106   121 1
   74   143   146 1
   75   140   142 1
   76   140   143 1
   77   138   140 1
   78   134   136 1
   79   134   138 1
   80   130   132 1
   81   130   134 1
   82   127   129 1
   83   127   130 1
   84   127   142 1
   85    20    21 1
   86    17    18 1
   87    17    19 1
   88    14    15 1
   89    12    13 1
   90    10    11 1
   91     8     9 1
   92     6     7 1
   93     4     5 1
   94     1     2 1
   95    41    42 1
   96    38    39 1
   97    38    40 1
   98    35    36 1
   99    33    34 1
  100    31    32 1
  101    29    30 1
  102    27    28 1
  103    25    26 1
  104    22    23 1
  105    62    63 1
  106    59    60 1
  107    59    61 1
  108    56    57 1
  109    54    55 1
  110    52    53 1
  111    50    51 1
  112    48    49 1
  113    46    47 1
  114    43    44 1
  115    83    84 1
  116    80    81 1
  117    80    82 1
  118    77    78 1
  119    75    76 1
  120    73    74 1
  121    71    72 1
  122    69    70 1
  123    67    68 1
  124    64    65 1
  125   104   105 1
  126   101   102 1
  127   101   103 1
  128    98    99 1
  129    96    97 1
  130    94    95 1
  131    92    93 1
  132    90    91 1
  133    88    89 1
  134    85    86 1
  135   125   126 1
  136   122   123 1
  137   122   124 1
  138   119   120 1
  139   117   118 1
  140   115   116 1
  141   113   114 1
  142   111   112 1
  143   109   110 1
  144   106   107 1
  145   146   147 1
  146   143   144 1
  147   143   145 1
  148   140   141 1
  149   138   139 1
  150   136   137 1
  151   134   135 1
  152   132   133 1
  153   130   131 1
  154   127   128 1
@<TRIPOS>SUBSTRUCTURE
      1 MGO               1 ****               0 ****  **** 
      2 MGO              22 ****               0 ****  **** 
      3 MGO              43 ****               0 ****  **** 
      4 MGO              64 ****               0 ****  **** 
      5 MGO              85 ****               0 ****  **** 
      6 MGO             106 ****               0 ****  **** 
      7 MGO             127 ****               0 ****  **** 
