@<TRIPOS>MOLECULE
Cpptraj generated mol2 file.
   14    14     1     0     0
SMALL
USER_CHARGES


@<TRIPOS>ATOM
      1 C1         19.6968   19.9941   32.6877 ca         1 BEN     -0.161879
      2 H1         19.6968   19.9941   31.5977 ha         1 BEN      0.097073
      3 C2         19.0538   18.9761   33.3857 ca         1 BEN     -0.165876
      4 H2         18.5488   18.1781   32.8417 ha         1 BEN      0.101076
      5 C3         19.0528   18.9751   34.7797 ca         1 BEN     -0.108918
      6 H3         18.5448   18.1711   35.3087 ha         1 BEN      0.148111
      7 C4         19.6968   19.9941   35.4977 ca         1 BEN     -0.123507
      8 C5         20.3408   21.0131   34.7797 ca         1 BEN     -0.108918
      9 H4         20.8488   21.8171   35.3087 ha         1 BEN      0.148111
     10 C6         20.3398   21.0121   33.3857 ca         1 BEN     -0.165876
     11 H5         20.8448   21.8101   32.8417 ha         1 BEN      0.101076
     12 C7         19.6968   19.9941   37.0147 c          1 BEN      0.906879
     13 O1         20.2608   20.8861   37.6267 o          1 BEN     -0.833675
     14 O2         19.1328   19.1021   37.6267 o          1 BEN     -0.833677
@<TRIPOS>BOND
    1    12    13 1
    2    12    14 1
    3     8    10 1
    4     7     8 1
    5     7    12 1
    6     5     7 1
    7     3     5 1
    8     1     3 1
    9     1    10 1
   10    10    11 1
   11     8     9 1
   12     5     6 1
   13     3     4 1
   14     1     2 1
@<TRIPOS>SUBSTRUCTURE
      1 BEN               1 ****               0 ****  **** 
